# File generated by Flopy version 3.3.6 on 02/01/2024 at 17:47:48.
BEGIN options
END options

BEGIN timing
  TDIS6  project1-1_mf6.tdis
END timing

BEGIN models
  gwf6  project1-1_mf6.nam  project1-1_mf6
END models

BEGIN exchanges
END exchanges

BEGIN solutiongroup  1
  ims6  project1-1_mf6.ims  project1-1_mf6
END solutiongroup  1

