# File generated by Flopy version 3.3.6 on 04/18/2023 at 20:00:32.
BEGIN options
END options

BEGIN timing
  TDIS6  project1-1_mf6.tdis
END timing

BEGIN models
  gwf6  project1-1_mf6.nam  project1-1_mf6
END models

BEGIN exchanges
END exchanges

BEGIN solutiongroup  1
  ims6  project1-1_mf6.ims  project1-1_mf6
END solutiongroup  1

