# File generated by Flopy version 3.3.6 on 02/01/2024 at 17:47:48.
BEGIN griddata
  strt  LAYERED
    INTERNAL  FACTOR  1.0
         -25.00000000     -25.00000000     -25.00000000     -25.00000000     -25.00000000     -25.00000000     -25.00000000     -25.00000000     -25.00000000     -25.00000000
         -25.00000000     -25.00000000     -25.00000000     -25.00000000     -25.00000000     -25.00000000     -25.00000000     -25.00000000     -25.00000000     -25.00000000
         -25.00000000     -25.00000000     -25.00000000     -25.00000000     -25.00000000     -25.00000000     -25.00000000     -25.00000000     -25.00000000     -25.00000000
         -25.00000000     -25.00000000     -25.00000000     -25.00000000     -25.00000000     -25.00000000     -25.00000000     -25.00000000     -25.00000000     -25.00000000
         -25.00000000     -25.00000000     -25.00000000     -25.00000000     -25.00000000     -25.00000000     -25.00000000     -25.00000000     -25.00000000     -25.00000000
         -25.00000000     -25.00000000     -25.00000000     -25.00000000     -25.00000000     -25.00000000     -25.00000000     -25.00000000     -25.00000000     -25.00000000
         -25.00000000     -25.00000000     -25.00000000     -25.00000000     -25.00000000     -25.00000000     -25.00000000     -25.00000000     -25.00000000     -25.00000000
         -25.00000000     -25.00000000     -25.00000000     -25.00000000     -25.00000000     -25.00000000     -25.00000000     -25.00000000     -25.00000000     -25.00000000
         -25.00000000     -25.00000000     -25.00000000     -25.00000000     -25.00000000     -25.00000000     -25.00000000     -25.00000000     -25.00000000     -25.00000000
         -25.00000000     -25.00000000     -25.00000000     -25.00000000     -25.00000000     -25.00000000     -25.00000000     -25.00000000     -25.00000000     -25.00000000
         -25.00000000     -25.00000000     -25.00000000     -25.00000000     -25.00000000     -25.00000000     -25.00000000     -25.00000000     -25.00000000     -25.00000000
         -25.00000000     -25.00000000     -25.00000000     -25.00000000     -25.00000000     -25.00000000     -25.00000000     -25.00000000     -25.00000000     -25.00000000
         -25.00000000     -25.00000000     -25.00000000     -25.00000000     -25.00000000     -25.00000000     -25.00000000     -25.00000000     -25.00000000     -25.00000000
         -25.00000000     -25.00000000     -25.00000000     -25.00000000     -25.00000000     -25.00000000     -25.00000000     -25.00000000     -25.00000000     -25.00000000
         -25.00000000     -25.00000000     -25.00000000     -25.00000000     -25.00000000     -25.00000000     -25.00000000     -25.00000000     -25.00000000     -25.00000000
         -25.00000000     -25.00000000     -25.00000000     -25.00000000     -25.00000000     -25.00000000     -25.00000000     -25.00000000     -25.00000000     -25.00000000
         -25.00000000     -25.00000000     -25.00000000     -25.00000000     -25.00000000     -25.00000000     -25.00000000     -25.00000000     -25.00000000     -25.00000000
         -25.00000000     -25.00000000     -25.00000000     -25.00000000     -25.00000000     -25.00000000     -25.00000000     -25.00000000     -25.00000000     -25.00000000
         -25.00000000     -25.00000000     -25.00000000     -25.00000000     -25.00000000     -25.00000000     -25.00000000     -25.00000000     -25.00000000     -25.00000000
         -25.00000000     -25.00000000     -25.00000000     -25.00000000     -25.00000000     -25.00000000     -25.00000000     -25.00000000     -25.00000000     -25.00000000
         -25.00000000     -25.00000000     -25.00000000     -25.00000000     -25.00000000     -25.00000000     -25.00000000     -25.00000000     -25.00000000     -25.00000000
         -25.00000000     -25.00000000     -25.00000000     -25.00000000     -25.00000000     -25.00000000     -25.00000000     -25.00000000     -25.00000000     -25.00000000
         -25.00000000     -25.00000000     -25.00000000     -25.00000000     -25.00000000     -25.00000000     -25.00000000     -25.00000000     -25.00000000     -25.00000000
         -25.00000000     -25.00000000     -25.00000000     -25.00000000     -25.00000000     -25.00000000     -25.00000000     -25.00000000     -25.00000000     -25.00000000
    INTERNAL  FACTOR  1.0
         -25.00000000     -25.00000000     -25.00000000     -25.00000000     -25.00000000     -25.00000000     -25.00000000     -25.00000000     -25.00000000     -25.00000000
         -25.00000000     -25.00000000     -25.00000000     -25.00000000     -25.00000000     -25.00000000     -25.00000000     -25.00000000     -25.00000000     -25.00000000
         -25.00000000     -25.00000000     -25.00000000     -25.00000000     -25.00000000     -25.00000000     -25.00000000     -25.00000000     -25.00000000     -25.00000000
         -25.00000000     -25.00000000     -25.00000000     -25.00000000     -25.00000000     -25.00000000     -25.00000000     -25.00000000     -25.00000000     -25.00000000
         -25.00000000     -25.00000000     -25.00000000     -25.00000000     -25.00000000     -25.00000000     -25.00000000     -25.00000000     -25.00000000     -25.00000000
         -25.00000000     -25.00000000     -25.00000000     -25.00000000     -25.00000000     -25.00000000     -25.00000000     -25.00000000     -25.00000000     -25.00000000
         -25.00000000     -25.00000000     -25.00000000     -25.00000000     -25.00000000     -25.00000000     -25.00000000     -25.00000000     -25.00000000     -25.00000000
         -25.00000000     -25.00000000     -25.00000000     -25.00000000     -25.00000000     -25.00000000     -25.00000000     -25.00000000     -25.00000000     -25.00000000
         -25.00000000     -25.00000000     -25.00000000     -25.00000000     -25.00000000     -25.00000000     -25.00000000     -25.00000000     -25.00000000     -25.00000000
         -25.00000000     -25.00000000     -25.00000000     -25.00000000     -25.00000000     -25.00000000     -25.00000000     -25.00000000     -25.00000000     -25.00000000
         -25.00000000     -25.00000000     -25.00000000     -25.00000000     -25.00000000     -25.00000000     -25.00000000     -25.00000000     -25.00000000     -25.00000000
         -25.00000000     -25.00000000     -25.00000000     -25.00000000     -25.00000000     -25.00000000     -25.00000000     -25.00000000     -25.00000000     -25.00000000
         -25.00000000     -25.00000000     -25.00000000     -25.00000000     -25.00000000     -25.00000000     -25.00000000     -25.00000000     -25.00000000     -25.00000000
         -25.00000000     -25.00000000     -25.00000000     -25.00000000     -25.00000000     -25.00000000     -25.00000000     -25.00000000     -25.00000000     -25.00000000
         -25.00000000     -25.00000000     -25.00000000     -25.00000000     -25.00000000     -25.00000000     -25.00000000     -25.00000000     -25.00000000     -25.00000000
         -25.00000000     -25.00000000     -25.00000000     -25.00000000     -25.00000000     -25.00000000     -25.00000000     -25.00000000     -25.00000000     -25.00000000
         -25.00000000     -25.00000000     -25.00000000     -25.00000000     -25.00000000     -25.00000000     -25.00000000     -25.00000000     -25.00000000     -25.00000000
         -25.00000000     -25.00000000     -25.00000000     -25.00000000     -25.00000000     -25.00000000     -25.00000000     -25.00000000     -25.00000000     -25.00000000
         -25.00000000     -25.00000000     -25.00000000     -25.00000000     -25.00000000     -25.00000000     -25.00000000     -25.00000000     -25.00000000     -25.00000000
         -25.00000000     -25.00000000     -25.00000000     -25.00000000     -25.00000000     -25.00000000     -25.00000000     -25.00000000     -25.00000000     -25.00000000
         -25.00000000     -25.00000000     -25.00000000     -25.00000000     -25.00000000     -25.00000000     -25.00000000     -25.00000000     -25.00000000     -25.00000000
         -25.00000000     -25.00000000     -25.00000000     -25.00000000     -25.00000000     -25.00000000     -25.00000000     -25.00000000     -25.00000000     -25.00000000
         -25.00000000     -25.00000000     -25.00000000     -25.00000000     -25.00000000     -25.00000000     -25.00000000     -25.00000000     -25.00000000     -25.00000000
         -25.00000000     -25.00000000     -25.00000000     -25.00000000     -25.00000000     -25.00000000     -25.00000000     -25.00000000     -25.00000000     -25.00000000
    INTERNAL  FACTOR  1.0
         -25.00000000     -25.00000000     -25.00000000     -25.00000000     -25.00000000     -25.00000000     -25.00000000     -25.00000000     -25.00000000     -25.00000000
         -25.00000000     -25.00000000     -25.00000000     -25.00000000     -25.00000000     -25.00000000     -25.00000000     -25.00000000     -25.00000000     -25.00000000
         -25.00000000     -25.00000000     -25.00000000     -25.00000000     -25.00000000     -25.00000000     -25.00000000     -25.00000000     -25.00000000     -25.00000000
         -25.00000000     -25.00000000     -25.00000000     -25.00000000     -25.00000000     -25.00000000     -25.00000000     -25.00000000     -25.00000000     -25.00000000
         -25.00000000     -25.00000000     -25.00000000     -25.00000000     -25.00000000     -25.00000000     -25.00000000     -25.00000000     -25.00000000     -25.00000000
         -25.00000000     -25.00000000     -25.00000000     -25.00000000     -25.00000000     -25.00000000     -25.00000000     -25.00000000     -25.00000000     -25.00000000
         -25.00000000     -25.00000000     -25.00000000     -25.00000000     -25.00000000     -25.00000000     -25.00000000     -25.00000000     -25.00000000     -25.00000000
         -25.00000000     -25.00000000     -25.00000000     -25.00000000     -25.00000000     -25.00000000     -25.00000000     -25.00000000     -25.00000000     -25.00000000
         -25.00000000     -25.00000000     -25.00000000     -25.00000000     -25.00000000     -25.00000000     -25.00000000     -25.00000000     -25.00000000     -25.00000000
         -25.00000000     -25.00000000     -25.00000000     -25.00000000     -25.00000000     -25.00000000     -25.00000000     -25.00000000     -25.00000000     -25.00000000
         -25.00000000     -25.00000000     -25.00000000     -25.00000000     -25.00000000     -25.00000000     -25.00000000     -25.00000000     -25.00000000     -25.00000000
         -25.00000000     -25.00000000     -25.00000000     -25.00000000     -25.00000000     -25.00000000     -25.00000000     -25.00000000     -25.00000000     -25.00000000
         -25.00000000     -25.00000000     -25.00000000     -25.00000000     -25.00000000     -25.00000000     -25.00000000     -25.00000000     -25.00000000     -25.00000000
         -25.00000000     -25.00000000     -25.00000000     -25.00000000     -25.00000000     -25.00000000     -25.00000000     -25.00000000     -25.00000000     -25.00000000
         -25.00000000     -25.00000000     -25.00000000     -25.00000000     -25.00000000     -25.00000000     -25.00000000     -25.00000000     -25.00000000     -25.00000000
         -25.00000000     -25.00000000     -25.00000000     -25.00000000     -25.00000000     -25.00000000     -25.00000000     -25.00000000     -25.00000000     -25.00000000
         -25.00000000     -25.00000000     -25.00000000     -25.00000000     -25.00000000     -25.00000000     -25.00000000     -25.00000000     -25.00000000     -25.00000000
         -25.00000000     -25.00000000     -25.00000000     -25.00000000     -25.00000000     -25.00000000     -25.00000000     -25.00000000     -25.00000000     -25.00000000
         -25.00000000     -25.00000000     -25.00000000     -25.00000000     -25.00000000     -25.00000000     -25.00000000     -25.00000000     -25.00000000     -25.00000000
         -25.00000000     -25.00000000     -25.00000000     -25.00000000     -25.00000000     -25.00000000     -25.00000000     -25.00000000     -25.00000000     -25.00000000
         -25.00000000     -25.00000000     -25.00000000     -25.00000000     -25.00000000     -25.00000000     -25.00000000     -25.00000000     -25.00000000     -25.00000000
         -25.00000000     -25.00000000     -25.00000000     -25.00000000     -25.00000000     -25.00000000     -25.00000000     -25.00000000     -25.00000000     -25.00000000
         -25.00000000     -25.00000000     -25.00000000     -25.00000000     -25.00000000     -25.00000000     -25.00000000     -25.00000000     -25.00000000     -25.00000000
         -25.00000000     -25.00000000     -25.00000000     -25.00000000     -25.00000000     -25.00000000     -25.00000000     -25.00000000     -25.00000000     -25.00000000
    INTERNAL  FACTOR  1.0
         -25.00000000     -25.00000000     -25.00000000     -25.00000000     -25.00000000     -25.00000000     -25.00000000     -25.00000000     -25.00000000     -25.00000000
         -25.00000000     -25.00000000     -25.00000000     -25.00000000     -25.00000000     -25.00000000     -25.00000000     -25.00000000     -25.00000000     -25.00000000
         -25.00000000     -25.00000000     -25.00000000     -25.00000000     -25.00000000     -25.00000000     -25.00000000     -25.00000000     -25.00000000     -25.00000000
         -25.00000000     -25.00000000     -25.00000000     -25.00000000     -25.00000000     -25.00000000     -25.00000000     -25.00000000     -25.00000000     -25.00000000
         -25.00000000     -25.00000000     -25.00000000     -25.00000000     -25.00000000     -25.00000000     -25.00000000     -25.00000000     -25.00000000     -25.00000000
         -25.00000000     -25.00000000     -25.00000000     -25.00000000     -25.00000000     -25.00000000     -25.00000000     -25.00000000     -25.00000000     -25.00000000
         -25.00000000     -25.00000000     -25.00000000     -25.00000000     -25.00000000     -25.00000000     -25.00000000     -25.00000000     -25.00000000     -25.00000000
         -25.00000000     -25.00000000     -25.00000000     -25.00000000     -25.00000000     -25.00000000     -25.00000000     -25.00000000     -25.00000000     -25.00000000
         -25.00000000     -25.00000000     -25.00000000     -25.00000000     -25.00000000     -25.00000000     -25.00000000     -25.00000000     -25.00000000     -25.00000000
         -25.00000000     -25.00000000     -25.00000000     -25.00000000     -25.00000000     -25.00000000     -25.00000000     -25.00000000     -25.00000000     -25.00000000
         -25.00000000     -25.00000000     -25.00000000     -25.00000000     -25.00000000     -25.00000000     -25.00000000     -25.00000000     -25.00000000     -25.00000000
         -25.00000000     -25.00000000     -25.00000000     -25.00000000     -25.00000000     -25.00000000     -25.00000000     -25.00000000     -25.00000000     -25.00000000
         -25.00000000     -25.00000000     -25.00000000     -25.00000000     -25.00000000     -25.00000000     -25.00000000     -25.00000000     -25.00000000     -25.00000000
         -25.00000000     -25.00000000     -25.00000000     -25.00000000     -25.00000000     -25.00000000     -25.00000000     -25.00000000     -25.00000000     -25.00000000
         -25.00000000     -25.00000000     -25.00000000     -25.00000000     -25.00000000     -25.00000000     -25.00000000     -25.00000000     -25.00000000     -25.00000000
         -25.00000000     -25.00000000     -25.00000000     -25.00000000     -25.00000000     -25.00000000     -25.00000000     -25.00000000     -25.00000000     -25.00000000
         -25.00000000     -25.00000000     -25.00000000     -25.00000000     -25.00000000     -25.00000000     -25.00000000     -25.00000000     -25.00000000     -25.00000000
         -25.00000000     -25.00000000     -25.00000000     -25.00000000     -25.00000000     -25.00000000     -25.00000000     -25.00000000     -25.00000000     -25.00000000
         -25.00000000     -25.00000000     -25.00000000     -25.00000000     -25.00000000     -25.00000000     -25.00000000     -25.00000000     -25.00000000     -25.00000000
         -25.00000000     -25.00000000     -25.00000000     -25.00000000     -25.00000000     -25.00000000     -25.00000000     -25.00000000     -25.00000000     -25.00000000
         -25.00000000     -25.00000000     -25.00000000     -25.00000000     -25.00000000     -25.00000000     -25.00000000     -25.00000000     -25.00000000     -25.00000000
         -25.00000000     -25.00000000     -25.00000000     -25.00000000     -25.00000000     -25.00000000     -25.00000000     -25.00000000     -25.00000000     -25.00000000
         -25.00000000     -25.00000000     -25.00000000     -25.00000000     -25.00000000     -25.00000000     -25.00000000     -25.00000000     -25.00000000     -25.00000000
         -25.00000000     -25.00000000     -25.00000000     -25.00000000     -25.00000000     -25.00000000     -25.00000000     -25.00000000     -25.00000000     -25.00000000
    INTERNAL  FACTOR  1.0
         -25.00000000     -25.00000000     -25.00000000     -25.00000000     -25.00000000     -25.00000000     -25.00000000     -25.00000000     -25.00000000     -25.00000000
         -25.00000000     -25.00000000     -25.00000000     -25.00000000     -25.00000000     -25.00000000     -25.00000000     -25.00000000     -25.00000000     -25.00000000
         -25.00000000     -25.00000000     -25.00000000     -25.00000000     -25.00000000     -25.00000000     -25.00000000     -25.00000000     -25.00000000     -25.00000000
         -25.00000000     -25.00000000     -25.00000000     -25.00000000     -25.00000000     -25.00000000     -25.00000000     -25.00000000     -25.00000000     -25.00000000
         -25.00000000     -25.00000000     -25.00000000     -25.00000000     -25.00000000     -25.00000000     -25.00000000     -25.00000000     -25.00000000     -25.00000000
         -25.00000000     -25.00000000     -25.00000000     -25.00000000     -25.00000000     -25.00000000     -25.00000000     -25.00000000     -25.00000000     -25.00000000
         -25.00000000     -25.00000000     -25.00000000     -25.00000000     -25.00000000     -25.00000000     -25.00000000     -25.00000000     -25.00000000     -25.00000000
         -25.00000000     -25.00000000     -25.00000000     -25.00000000     -25.00000000     -25.00000000     -25.00000000     -25.00000000     -25.00000000     -25.00000000
         -25.00000000     -25.00000000     -25.00000000     -25.00000000     -25.00000000     -25.00000000     -25.00000000     -25.00000000     -25.00000000     -25.00000000
         -25.00000000     -25.00000000     -25.00000000     -25.00000000     -25.00000000     -25.00000000     -25.00000000     -25.00000000     -25.00000000     -25.00000000
         -25.00000000     -25.00000000     -25.00000000     -25.00000000     -25.00000000     -25.00000000     -25.00000000     -25.00000000     -25.00000000     -25.00000000
         -25.00000000     -25.00000000     -25.00000000     -25.00000000     -25.00000000     -25.00000000     -25.00000000     -25.00000000     -25.00000000     -25.00000000
         -25.00000000     -25.00000000     -25.00000000     -25.00000000     -25.00000000     -25.00000000     -25.00000000     -25.00000000     -25.00000000     -25.00000000
         -25.00000000     -25.00000000     -25.00000000     -25.00000000     -25.00000000     -25.00000000     -25.00000000     -25.00000000     -25.00000000     -25.00000000
         -25.00000000     -25.00000000     -25.00000000     -25.00000000     -25.00000000     -25.00000000     -25.00000000     -25.00000000     -25.00000000     -25.00000000
         -25.00000000     -25.00000000     -25.00000000     -25.00000000     -25.00000000     -25.00000000     -25.00000000     -25.00000000     -25.00000000     -25.00000000
         -25.00000000     -25.00000000     -25.00000000     -25.00000000     -25.00000000     -25.00000000     -25.00000000     -25.00000000     -25.00000000     -25.00000000
         -25.00000000     -25.00000000     -25.00000000     -25.00000000     -25.00000000     -25.00000000     -25.00000000     -25.00000000     -25.00000000     -25.00000000
         -25.00000000     -25.00000000     -25.00000000     -25.00000000     -25.00000000     -25.00000000     -25.00000000     -25.00000000     -25.00000000     -25.00000000
         -25.00000000     -25.00000000     -25.00000000     -25.00000000     -25.00000000     -25.00000000     -25.00000000     -25.00000000     -25.00000000     -25.00000000
         -25.00000000     -25.00000000     -25.00000000     -25.00000000     -25.00000000     -25.00000000     -25.00000000     -25.00000000     -25.00000000     -25.00000000
         -25.00000000     -25.00000000     -25.00000000     -25.00000000     -25.00000000     -25.00000000     -25.00000000     -25.00000000     -25.00000000     -25.00000000
         -25.00000000     -25.00000000     -25.00000000     -25.00000000     -25.00000000     -25.00000000     -25.00000000     -25.00000000     -25.00000000     -25.00000000
         -25.00000000     -25.00000000     -25.00000000     -25.00000000     -25.00000000     -25.00000000     -25.00000000     -25.00000000     -25.00000000     -25.00000000
END griddata

