# File generated by Flopy version 3.3.6 on 02/01/2024 at 17:47:48.
BEGIN options
  TIME_UNITS  years
END options

BEGIN dimensions
  NPER  1
END dimensions

BEGIN perioddata
       1.00000000  1       1.00000000
END perioddata

