# File generated by Flopy version 3.3.6 on 04/19/2023 at 23:23:20.
BEGIN griddata
  strt  LAYERED
    INTERNAL  FACTOR  1.0
         -25.00000000     -25.00000000     -25.00000000     -25.00000000     -25.00000000     -25.00000000     -25.00000000     -25.00000000     -25.00000000     -25.00000000
         -25.00000000     -25.00000000     -25.00000000     -25.00000000     -25.00000000     -25.00000000     -25.00000000     -25.00000000     -25.00000000     -25.00000000
         -25.00000000     -25.00000000     -25.00000000     -25.00000000     -25.00000000     -25.00000000     -25.00000000     -25.00000000     -25.00000000     -25.00000000
         -25.00000000     -25.00000000     -25.00000000     -25.00000000     -25.00000000     -25.00000000     -25.00000000     -25.00000000     -25.00000000     -25.00000000
         -25.00000000     -25.00000000     -25.00000000     -25.00000000     -25.00000000     -25.00000000     -25.00000000     -25.00000000     -25.00000000     -25.00000000
         -25.00000000     -25.00000000     -25.00000000     -25.00000000     -25.00000000     -25.00000000     -25.00000000     -25.00000000     -25.00000000     -25.00000000
         -25.00000000     -25.00000000     -25.00000000     -25.00000000     -25.00000000     -25.00000000     -25.00000000     -25.00000000     -25.00000000     -25.00000000
         -25.00000000     -25.00000000     -25.00000000     -25.00000000     -25.00000000     -25.00000000     -25.00000000     -25.00000000     -25.00000000     -25.00000000
         -25.00000000     -25.00000000     -25.00000000     -25.00000000     -25.00000000     -25.00000000     -25.00000000     -25.00000000     -25.00000000     -25.00000000
         -25.00000000     -25.00000000     -25.00000000     -25.00000000     -25.00000000     -25.00000000     -25.00000000     -25.00000000     -25.00000000     -25.00000000
         -25.00000000     -25.00000000     -25.00000000     -25.00000000     -25.00000000     -25.00000000     -25.00000000     -25.00000000     -25.00000000     -25.00000000
         -25.00000000     -25.00000000     -25.00000000     -25.00000000     -25.00000000     -25.00000000     -25.00000000     -25.00000000     -25.00000000     -25.00000000
         -25.00000000     -25.00000000     -25.00000000     -25.00000000     -25.00000000     -25.00000000     -25.00000000     -25.00000000     -25.00000000     -25.00000000
         -25.00000000     -25.00000000     -25.00000000     -25.00000000     -25.00000000     -25.00000000     -25.00000000     -25.00000000     -25.00000000     -25.00000000
         -25.00000000     -25.00000000     -25.00000000     -25.00000000     -25.00000000     -25.00000000     -25.00000000     -25.00000000     -25.00000000     -25.00000000
         -25.00000000     -25.00000000     -25.00000000     -25.00000000     -25.00000000     -25.00000000     -25.00000000     -25.00000000     -25.00000000     -25.00000000
         -25.00000000     -25.00000000     -25.00000000     -25.00000000     -25.00000000     -25.00000000     -25.00000000     -25.00000000     -25.00000000     -25.00000000
         -25.00000000     -25.00000000     -25.00000000     -25.00000000     -25.00000000     -25.00000000     -25.00000000     -25.00000000     -25.00000000     -25.00000000
         -25.00000000     -25.00000000     -25.00000000     -25.00000000     -25.00000000     -25.00000000     -25.00000000     -25.00000000     -25.00000000     -25.00000000
         -25.00000000     -25.00000000     -25.00000000     -25.00000000     -25.00000000     -25.00000000     -25.00000000     -25.00000000     -25.00000000     -25.00000000
         -25.00000000     -25.00000000     -25.00000000     -25.00000000     -25.00000000     -25.00000000     -25.00000000     -25.00000000     -25.00000000     -25.00000000
         -25.00000000     -25.00000000     -25.00000000     -25.00000000     -25.00000000     -25.00000000     -25.00000000     -25.00000000     -25.00000000     -25.00000000
         -25.00000000     -25.00000000     -25.00000000     -25.00000000     -25.00000000     -25.00000000     -25.00000000     -25.00000000     -25.00000000     -25.00000000
         -25.00000000     -25.00000000     -25.00000000     -25.00000000     -25.00000000     -25.00000000     -25.00000000     -25.00000000     -25.00000000     -25.00000000
    INTERNAL  FACTOR  1.0
         -25.00000000     -25.00000000     -25.00000000     -25.00000000     -25.00000000     -25.00000000     -25.00000000     -25.00000000     -25.00000000     -25.00000000
         -25.00000000     -25.00000000     -25.00000000     -25.00000000     -25.00000000     -25.00000000     -25.00000000     -25.00000000     -25.00000000     -25.00000000
         -25.00000000     -25.00000000     -25.00000000     -25.00000000     -25.00000000     -25.00000000     -25.00000000     -25.00000000     -25.00000000     -25.00000000
         -25.00000000     -25.00000000     -25.00000000     -25.00000000     -25.00000000     -25.00000000     -25.00000000     -25.00000000     -25.00000000     -25.00000000
         -25.00000000     -25.00000000     -25.00000000     -25.00000000     -25.00000000     -25.00000000     -25.00000000     -25.00000000     -25.00000000     -25.00000000
         -25.00000000     -25.00000000     -25.00000000     -25.00000000     -25.00000000     -25.00000000     -25.00000000     -25.00000000     -25.00000000     -25.00000000
         -25.00000000     -25.00000000     -25.00000000     -25.00000000     -25.00000000     -25.00000000     -25.00000000     -25.00000000     -25.00000000     -25.00000000
         -25.00000000     -25.00000000     -25.00000000     -25.00000000     -25.00000000     -25.00000000     -25.00000000     -25.00000000     -25.00000000     -25.00000000
         -25.00000000     -25.00000000     -25.00000000     -25.00000000     -25.00000000     -25.00000000     -25.00000000     -25.00000000     -25.00000000     -25.00000000
         -25.00000000     -25.00000000     -25.00000000     -25.00000000     -25.00000000     -25.00000000     -25.00000000     -25.00000000     -25.00000000     -25.00000000
         -25.00000000     -25.00000000     -25.00000000     -25.00000000     -25.00000000     -25.00000000     -25.00000000     -25.00000000     -25.00000000     -25.00000000
         -25.00000000     -25.00000000     -25.00000000     -25.00000000     -25.00000000     -25.00000000     -25.00000000     -25.00000000     -25.00000000     -25.00000000
         -25.00000000     -25.00000000     -25.00000000     -25.00000000     -25.00000000     -25.00000000     -25.00000000     -25.00000000     -25.00000000     -25.00000000
         -25.00000000     -25.00000000     -25.00000000     -25.00000000     -25.00000000     -25.00000000     -25.00000000     -25.00000000     -25.00000000     -25.00000000
         -25.00000000     -25.00000000     -25.00000000     -25.00000000     -25.00000000     -25.00000000     -25.00000000     -25.00000000     -25.00000000     -25.00000000
         -25.00000000     -25.00000000     -25.00000000     -25.00000000     -25.00000000     -25.00000000     -25.00000000     -25.00000000     -25.00000000     -25.00000000
         -25.00000000     -25.00000000     -25.00000000     -25.00000000     -25.00000000     -25.00000000     -25.00000000     -25.00000000     -25.00000000     -25.00000000
         -25.00000000     -25.00000000     -25.00000000     -25.00000000     -25.00000000     -25.00000000     -25.00000000     -25.00000000     -25.00000000     -25.00000000
         -25.00000000     -25.00000000     -25.00000000     -25.00000000     -25.00000000     -25.00000000     -25.00000000     -25.00000000     -25.00000000     -25.00000000
         -25.00000000     -25.00000000     -25.00000000     -25.00000000     -25.00000000     -25.00000000     -25.00000000     -25.00000000     -25.00000000     -25.00000000
         -25.00000000     -25.00000000     -25.00000000     -25.00000000     -25.00000000     -25.00000000     -25.00000000     -25.00000000     -25.00000000     -25.00000000
         -25.00000000     -25.00000000     -25.00000000     -25.00000000     -25.00000000     -25.00000000     -25.00000000     -25.00000000     -25.00000000     -25.00000000
         -25.00000000     -25.00000000     -25.00000000     -25.00000000     -25.00000000     -25.00000000     -25.00000000     -25.00000000     -25.00000000     -25.00000000
         -25.00000000     -25.00000000     -25.00000000     -25.00000000     -25.00000000     -25.00000000     -25.00000000     -25.00000000     -25.00000000     -25.00000000
    INTERNAL  FACTOR  1.0
         -25.00000000     -25.00000000     -25.00000000     -25.00000000     -25.00000000     -25.00000000     -25.00000000     -25.00000000     -25.00000000     -25.00000000
         -25.00000000     -25.00000000     -25.00000000     -25.00000000     -25.00000000     -25.00000000     -25.00000000     -25.00000000     -25.00000000     -25.00000000
         -25.00000000     -25.00000000     -25.00000000     -25.00000000     -25.00000000     -25.00000000     -25.00000000     -25.00000000     -25.00000000     -25.00000000
         -25.00000000     -25.00000000     -25.00000000     -25.00000000     -25.00000000     -25.00000000     -25.00000000     -25.00000000     -25.00000000     -25.00000000
         -25.00000000     -25.00000000     -25.00000000     -25.00000000     -25.00000000     -25.00000000     -25.00000000     -25.00000000     -25.00000000     -25.00000000
         -25.00000000     -25.00000000     -25.00000000     -25.00000000     -25.00000000     -25.00000000     -25.00000000     -25.00000000     -25.00000000     -25.00000000
         -25.00000000     -25.00000000     -25.00000000     -25.00000000     -25.00000000     -25.00000000     -25.00000000     -25.00000000     -25.00000000     -25.00000000
         -25.00000000     -25.00000000     -25.00000000     -25.00000000     -25.00000000     -25.00000000     -25.00000000     -25.00000000     -25.00000000     -25.00000000
         -25.00000000     -25.00000000     -25.00000000     -25.00000000     -25.00000000     -25.00000000     -25.00000000     -25.00000000     -25.00000000     -25.00000000
         -25.00000000     -25.00000000     -25.00000000     -25.00000000     -25.00000000     -25.00000000     -25.00000000     -25.00000000     -25.00000000     -25.00000000
         -25.00000000     -25.00000000     -25.00000000     -25.00000000     -25.00000000     -25.00000000     -25.00000000     -25.00000000     -25.00000000     -25.00000000
         -25.00000000     -25.00000000     -25.00000000     -25.00000000     -25.00000000     -25.00000000     -25.00000000     -25.00000000     -25.00000000     -25.00000000
         -25.00000000     -25.00000000     -25.00000000     -25.00000000     -25.00000000     -25.00000000     -25.00000000     -25.00000000     -25.00000000     -25.00000000
         -25.00000000     -25.00000000     -25.00000000     -25.00000000     -25.00000000     -25.00000000     -25.00000000     -25.00000000     -25.00000000     -25.00000000
         -25.00000000     -25.00000000     -25.00000000     -25.00000000     -25.00000000     -25.00000000     -25.00000000     -25.00000000     -25.00000000     -25.00000000
         -25.00000000     -25.00000000     -25.00000000     -25.00000000     -25.00000000     -25.00000000     -25.00000000     -25.00000000     -25.00000000     -25.00000000
         -25.00000000     -25.00000000     -25.00000000     -25.00000000     -25.00000000     -25.00000000     -25.00000000     -25.00000000     -25.00000000     -25.00000000
         -25.00000000     -25.00000000     -25.00000000     -25.00000000     -25.00000000     -25.00000000     -25.00000000     -25.00000000     -25.00000000     -25.00000000
         -25.00000000     -25.00000000     -25.00000000     -25.00000000     -25.00000000     -25.00000000     -25.00000000     -25.00000000     -25.00000000     -25.00000000
         -25.00000000     -25.00000000     -25.00000000     -25.00000000     -25.00000000     -25.00000000     -25.00000000     -25.00000000     -25.00000000     -25.00000000
         -25.00000000     -25.00000000     -25.00000000     -25.00000000     -25.00000000     -25.00000000     -25.00000000     -25.00000000     -25.00000000     -25.00000000
         -25.00000000     -25.00000000     -25.00000000     -25.00000000     -25.00000000     -25.00000000     -25.00000000     -25.00000000     -25.00000000     -25.00000000
         -25.00000000     -25.00000000     -25.00000000     -25.00000000     -25.00000000     -25.00000000     -25.00000000     -25.00000000     -25.00000000     -25.00000000
         -25.00000000     -25.00000000     -25.00000000     -25.00000000     -25.00000000     -25.00000000     -25.00000000     -25.00000000     -25.00000000     -25.00000000
    INTERNAL  FACTOR  1.0
         -25.00000000     -25.00000000     -25.00000000     -25.00000000     -25.00000000     -25.00000000     -25.00000000     -25.00000000     -25.00000000     -25.00000000
         -25.00000000     -25.00000000     -25.00000000     -25.00000000     -25.00000000     -25.00000000     -25.00000000     -25.00000000     -25.00000000     -25.00000000
         -25.00000000     -25.00000000     -25.00000000     -25.00000000     -25.00000000     -25.00000000     -25.00000000     -25.00000000     -25.00000000     -25.00000000
         -25.00000000     -25.00000000     -25.00000000     -25.00000000     -25.00000000     -25.00000000     -25.00000000     -25.00000000     -25.00000000     -25.00000000
         -25.00000000     -25.00000000     -25.00000000     -25.00000000     -25.00000000     -25.00000000     -25.00000000     -25.00000000     -25.00000000     -25.00000000
         -25.00000000     -25.00000000     -25.00000000     -25.00000000     -25.00000000     -25.00000000     -25.00000000     -25.00000000     -25.00000000     -25.00000000
         -25.00000000     -25.00000000     -25.00000000     -25.00000000     -25.00000000     -25.00000000     -25.00000000     -25.00000000     -25.00000000     -25.00000000
         -25.00000000     -25.00000000     -25.00000000     -25.00000000     -25.00000000     -25.00000000     -25.00000000     -25.00000000     -25.00000000     -25.00000000
         -25.00000000     -25.00000000     -25.00000000     -25.00000000     -25.00000000     -25.00000000     -25.00000000     -25.00000000     -25.00000000     -25.00000000
         -25.00000000     -25.00000000     -25.00000000     -25.00000000     -25.00000000     -25.00000000     -25.00000000     -25.00000000     -25.00000000     -25.00000000
         -25.00000000     -25.00000000     -25.00000000     -25.00000000     -25.00000000     -25.00000000     -25.00000000     -25.00000000     -25.00000000     -25.00000000
         -25.00000000     -25.00000000     -25.00000000     -25.00000000     -25.00000000     -25.00000000     -25.00000000     -25.00000000     -25.00000000     -25.00000000
         -25.00000000     -25.00000000     -25.00000000     -25.00000000     -25.00000000     -25.00000000     -25.00000000     -25.00000000     -25.00000000     -25.00000000
         -25.00000000     -25.00000000     -25.00000000     -25.00000000     -25.00000000     -25.00000000     -25.00000000     -25.00000000     -25.00000000     -25.00000000
         -25.00000000     -25.00000000     -25.00000000     -25.00000000     -25.00000000     -25.00000000     -25.00000000     -25.00000000     -25.00000000     -25.00000000
         -25.00000000     -25.00000000     -25.00000000     -25.00000000     -25.00000000     -25.00000000     -25.00000000     -25.00000000     -25.00000000     -25.00000000
         -25.00000000     -25.00000000     -25.00000000     -25.00000000     -25.00000000     -25.00000000     -25.00000000     -25.00000000     -25.00000000     -25.00000000
         -25.00000000     -25.00000000     -25.00000000     -25.00000000     -25.00000000     -25.00000000     -25.00000000     -25.00000000     -25.00000000     -25.00000000
         -25.00000000     -25.00000000     -25.00000000     -25.00000000     -25.00000000     -25.00000000     -25.00000000     -25.00000000     -25.00000000     -25.00000000
         -25.00000000     -25.00000000     -25.00000000     -25.00000000     -25.00000000     -25.00000000     -25.00000000     -25.00000000     -25.00000000     -25.00000000
         -25.00000000     -25.00000000     -25.00000000     -25.00000000     -25.00000000     -25.00000000     -25.00000000     -25.00000000     -25.00000000     -25.00000000
         -25.00000000     -25.00000000     -25.00000000     -25.00000000     -25.00000000     -25.00000000     -25.00000000     -25.00000000     -25.00000000     -25.00000000
         -25.00000000     -25.00000000     -25.00000000     -25.00000000     -25.00000000     -25.00000000     -25.00000000     -25.00000000     -25.00000000     -25.00000000
         -25.00000000     -25.00000000     -25.00000000     -25.00000000     -25.00000000     -25.00000000     -25.00000000     -25.00000000     -25.00000000     -25.00000000
    INTERNAL  FACTOR  1.0
         -25.00000000     -25.00000000     -25.00000000     -25.00000000     -25.00000000     -25.00000000     -25.00000000     -25.00000000     -25.00000000     -25.00000000
         -25.00000000     -25.00000000     -25.00000000     -25.00000000     -25.00000000     -25.00000000     -25.00000000     -25.00000000     -25.00000000     -25.00000000
         -25.00000000     -25.00000000     -25.00000000     -25.00000000     -25.00000000     -25.00000000     -25.00000000     -25.00000000     -25.00000000     -25.00000000
         -25.00000000     -25.00000000     -25.00000000     -25.00000000     -25.00000000     -25.00000000     -25.00000000     -25.00000000     -25.00000000     -25.00000000
         -25.00000000     -25.00000000     -25.00000000     -25.00000000     -25.00000000     -25.00000000     -25.00000000     -25.00000000     -25.00000000     -25.00000000
         -25.00000000     -25.00000000     -25.00000000     -25.00000000     -25.00000000     -25.00000000     -25.00000000     -25.00000000     -25.00000000     -25.00000000
         -25.00000000     -25.00000000     -25.00000000     -25.00000000     -25.00000000     -25.00000000     -25.00000000     -25.00000000     -25.00000000     -25.00000000
         -25.00000000     -25.00000000     -25.00000000     -25.00000000     -25.00000000     -25.00000000     -25.00000000     -25.00000000     -25.00000000     -25.00000000
         -25.00000000     -25.00000000     -25.00000000     -25.00000000     -25.00000000     -25.00000000     -25.00000000     -25.00000000     -25.00000000     -25.00000000
         -25.00000000     -25.00000000     -25.00000000     -25.00000000     -25.00000000     -25.00000000     -25.00000000     -25.00000000     -25.00000000     -25.00000000
         -25.00000000     -25.00000000     -25.00000000     -25.00000000     -25.00000000     -25.00000000     -25.00000000     -25.00000000     -25.00000000     -25.00000000
         -25.00000000     -25.00000000     -25.00000000     -25.00000000     -25.00000000     -25.00000000     -25.00000000     -25.00000000     -25.00000000     -25.00000000
         -25.00000000     -25.00000000     -25.00000000     -25.00000000     -25.00000000     -25.00000000     -25.00000000     -25.00000000     -25.00000000     -25.00000000
         -25.00000000     -25.00000000     -25.00000000     -25.00000000     -25.00000000     -25.00000000     -25.00000000     -25.00000000     -25.00000000     -25.00000000
         -25.00000000     -25.00000000     -25.00000000     -25.00000000     -25.00000000     -25.00000000     -25.00000000     -25.00000000     -25.00000000     -25.00000000
         -25.00000000     -25.00000000     -25.00000000     -25.00000000     -25.00000000     -25.00000000     -25.00000000     -25.00000000     -25.00000000     -25.00000000
         -25.00000000     -25.00000000     -25.00000000     -25.00000000     -25.00000000     -25.00000000     -25.00000000     -25.00000000     -25.00000000     -25.00000000
         -25.00000000     -25.00000000     -25.00000000     -25.00000000     -25.00000000     -25.00000000     -25.00000000     -25.00000000     -25.00000000     -25.00000000
         -25.00000000     -25.00000000     -25.00000000     -25.00000000     -25.00000000     -25.00000000     -25.00000000     -25.00000000     -25.00000000     -25.00000000
         -25.00000000     -25.00000000     -25.00000000     -25.00000000     -25.00000000     -25.00000000     -25.00000000     -25.00000000     -25.00000000     -25.00000000
         -25.00000000     -25.00000000     -25.00000000     -25.00000000     -25.00000000     -25.00000000     -25.00000000     -25.00000000     -25.00000000     -25.00000000
         -25.00000000     -25.00000000     -25.00000000     -25.00000000     -25.00000000     -25.00000000     -25.00000000     -25.00000000     -25.00000000     -25.00000000
         -25.00000000     -25.00000000     -25.00000000     -25.00000000     -25.00000000     -25.00000000     -25.00000000     -25.00000000     -25.00000000     -25.00000000
         -25.00000000     -25.00000000     -25.00000000     -25.00000000     -25.00000000     -25.00000000     -25.00000000     -25.00000000     -25.00000000     -25.00000000
END griddata

