# File generated by Flopy version 3.3.6 on 04/16/2023 at 21:10:42.
BEGIN options
  COMPLEXITY  simple
END options

