# File generated by Flopy version 3.3.6 on 02/01/2024 at 17:47:48.
BEGIN options
  READASARRAYS
END options

BEGIN period  1
  recharge
    CONSTANT       0.25000000
END period  1

