# File generated by Flopy version 3.3.6 on 04/16/2023 at 21:10:42.
BEGIN options
  READASARRAYS
END options

BEGIN period  1
  recharge
    CONSTANT       0.25000000
END period  1

