# File generated by Flopy version 3.3.6 on 04/16/2023 at 21:10:42.
BEGIN options
END options

BEGIN dimensions
  MAXBOUND  6
END dimensions

BEGIN period  1
  1 22 6      -1.00000000
  2 22 6      -1.00000000
  4 15 7      -1.00000000
  5 15 7      -1.00000000
  4 5 7      -1.00000000
  5 5 7      -1.00000000
END period  1

