# File generated by Flopy version 3.3.6 on 02/01/2024 at 17:47:48.
BEGIN options
  SAVE_FLOWS
END options

BEGIN griddata
  icelltype
    CONSTANT  1
  k
    CONSTANT    7300.00000000
END griddata

