# File generated by Flopy version 3.3.6 on 04/16/2023 at 21:10:42.
BEGIN griddata
  strt  LAYERED
    INTERNAL  FACTOR  1.0
         -25.00000000     -25.00000000     -25.00000000     -25.00000000     -25.00000000     -25.00000000     -25.00000000     -25.00000000     -25.00000000     -25.00000000
         -25.00000000     -25.00000000     -25.00000000     -25.00000000     -25.00000000     -25.00000000     -25.00000000     -25.00000000     -25.00000000     -25.00000000
         -25.00000000     -25.00000000     -25.00000000     -25.00000000     -25.00000000     -25.00000000     -25.00000000     -25.00000000     -25.00000000     -25.00000000
         -25.00000000     -25.00000000     -25.00000000     -25.00000000     -25.00000000     -25.00000000     -25.00000000     -25.00000000     -25.00000000     -25.00000000
         -25.00000000     -25.00000000     -25.00000000     -25.00000000     -25.00000000     -25.00000000     -25.00000000     -25.00000000     -25.00000000     -25.00000000
         -25.00000000     -25.00000000     -25.00000000     -25.00000000     -25.00000000     -25.00000000     -25.00000000     -25.00000000     -25.00000000     -25.00000000
         -25.00000000     -25.00000000     -25.00000000     -25.00000000     -25.00000000     -25.00000000     -25.00000000     -25.00000000     -25.00000000     -25.00000000
         -25.00000000     -25.00000000     -25.00000000     -25.00000000     -25.00000000     -25.00000000     -25.00000000     -25.00000000     -25.00000000     -25.00000000
         -25.00000000     -25.00000000     -25.00000000     -25.00000000     -25.00000000     -25.00000000     -25.00000000     -25.00000000     -25.00000000     -25.00000000
         -25.00000000     -25.00000000     -25.00000000     -25.00000000     -25.00000000     -25.00000000     -25.00000000     -25.00000000     -25.00000000     -25.00000000
         -25.00000000     -25.00000000     -25.00000000     -25.00000000     -25.00000000     -25.00000000     -25.00000000     -25.00000000     -25.00000000     -25.00000000
         -25.00000000     -25.00000000     -25.00000000     -25.00000000     -25.00000000     -25.00000000     -25.00000000     -25.00000000     -25.00000000     -25.00000000
         -25.00000000     -25.00000000     -25.00000000     -25.00000000     -25.00000000     -25.00000000     -25.00000000     -25.00000000     -25.00000000     -25.00000000
         -25.00000000     -25.00000000     -25.00000000     -25.00000000     -25.00000000     -25.00000000     -25.00000000     -25.00000000     -25.00000000     -25.00000000
         -25.00000000     -25.00000000     -25.00000000     -25.00000000     -25.00000000     -25.00000000     -25.00000000     -25.00000000     -25.00000000     -25.00000000
         -25.00000000     -25.00000000     -25.00000000     -25.00000000     -25.00000000     -25.00000000     -25.00000000     -25.00000000     -25.00000000     -25.00000000
         -25.00000000     -25.00000000     -25.00000000     -25.00000000     -25.00000000     -25.00000000     -25.00000000     -25.00000000     -25.00000000     -25.00000000
         -25.00000000     -25.00000000     -25.00000000     -25.00000000     -25.00000000     -25.00000000     -25.00000000     -25.00000000     -25.00000000     -25.00000000
         -25.00000000     -25.00000000     -25.00000000     -25.00000000     -25.00000000     -25.00000000     -25.00000000     -25.00000000     -25.00000000     -25.00000000
         -25.00000000     -25.00000000     -25.00000000     -25.00000000     -25.00000000     -25.00000000     -25.00000000     -25.00000000     -25.00000000     -25.00000000
         -25.00000000     -25.00000000     -25.00000000     -25.00000000     -25.00000000     -25.00000000     -25.00000000     -25.00000000     -25.00000000     -25.00000000
         -25.00000000     -25.00000000     -25.00000000     -25.00000000     -25.00000000     -25.00000000     -25.00000000     -25.00000000     -25.00000000     -25.00000000
         -25.00000000     -25.00000000     -25.00000000     -25.00000000     -25.00000000     -25.00000000     -25.00000000     -25.00000000     -25.00000000     -25.00000000
         -25.00000000     -25.00000000     -25.00000000     -25.00000000     -25.00000000     -25.00000000     -25.00000000     -25.00000000     -25.00000000     -25.00000000
    INTERNAL  FACTOR  1.0
         -25.00000000     -25.00000000     -25.00000000     -25.00000000     -25.00000000     -25.00000000     -25.00000000     -25.00000000     -25.00000000     -25.00000000
         -25.00000000     -25.00000000     -25.00000000     -25.00000000     -25.00000000     -25.00000000     -25.00000000     -25.00000000     -25.00000000     -25.00000000
         -25.00000000     -25.00000000     -25.00000000     -25.00000000     -25.00000000     -25.00000000     -25.00000000     -25.00000000     -25.00000000     -25.00000000
         -25.00000000     -25.00000000     -25.00000000     -25.00000000     -25.00000000     -25.00000000     -25.00000000     -25.00000000     -25.00000000     -25.00000000
         -25.00000000     -25.00000000     -25.00000000     -25.00000000     -25.00000000     -25.00000000     -25.00000000     -25.00000000     -25.00000000     -25.00000000
         -25.00000000     -25.00000000     -25.00000000     -25.00000000     -25.00000000     -25.00000000     -25.00000000     -25.00000000     -25.00000000     -25.00000000
         -25.00000000     -25.00000000     -25.00000000     -25.00000000     -25.00000000     -25.00000000     -25.00000000     -25.00000000     -25.00000000     -25.00000000
         -25.00000000     -25.00000000     -25.00000000     -25.00000000     -25.00000000     -25.00000000     -25.00000000     -25.00000000     -25.00000000     -25.00000000
         -25.00000000     -25.00000000     -25.00000000     -25.00000000     -25.00000000     -25.00000000     -25.00000000     -25.00000000     -25.00000000     -25.00000000
         -25.00000000     -25.00000000     -25.00000000     -25.00000000     -25.00000000     -25.00000000     -25.00000000     -25.00000000     -25.00000000     -25.00000000
         -25.00000000     -25.00000000     -25.00000000     -25.00000000     -25.00000000     -25.00000000     -25.00000000     -25.00000000     -25.00000000     -25.00000000
         -25.00000000     -25.00000000     -25.00000000     -25.00000000     -25.00000000     -25.00000000     -25.00000000     -25.00000000     -25.00000000     -25.00000000
         -25.00000000     -25.00000000     -25.00000000     -25.00000000     -25.00000000     -25.00000000     -25.00000000     -25.00000000     -25.00000000     -25.00000000
         -25.00000000     -25.00000000     -25.00000000     -25.00000000     -25.00000000     -25.00000000     -25.00000000     -25.00000000     -25.00000000     -25.00000000
         -25.00000000     -25.00000000     -25.00000000     -25.00000000     -25.00000000     -25.00000000     -25.00000000     -25.00000000     -25.00000000     -25.00000000
         -25.00000000     -25.00000000     -25.00000000     -25.00000000     -25.00000000     -25.00000000     -25.00000000     -25.00000000     -25.00000000     -25.00000000
         -25.00000000     -25.00000000     -25.00000000     -25.00000000     -25.00000000     -25.00000000     -25.00000000     -25.00000000     -25.00000000     -25.00000000
         -25.00000000     -25.00000000     -25.00000000     -25.00000000     -25.00000000     -25.00000000     -25.00000000     -25.00000000     -25.00000000     -25.00000000
         -25.00000000     -25.00000000     -25.00000000     -25.00000000     -25.00000000     -25.00000000     -25.00000000     -25.00000000     -25.00000000     -25.00000000
         -25.00000000     -25.00000000     -25.00000000     -25.00000000     -25.00000000     -25.00000000     -25.00000000     -25.00000000     -25.00000000     -25.00000000
         -25.00000000     -25.00000000     -25.00000000     -25.00000000     -25.00000000     -25.00000000     -25.00000000     -25.00000000     -25.00000000     -25.00000000
         -25.00000000     -25.00000000     -25.00000000     -25.00000000     -25.00000000     -25.00000000     -25.00000000     -25.00000000     -25.00000000     -25.00000000
         -25.00000000     -25.00000000     -25.00000000     -25.00000000     -25.00000000     -25.00000000     -25.00000000     -25.00000000     -25.00000000     -25.00000000
         -25.00000000     -25.00000000     -25.00000000     -25.00000000     -25.00000000     -25.00000000     -25.00000000     -25.00000000     -25.00000000     -25.00000000
    INTERNAL  FACTOR  1.0
         -25.00000000     -25.00000000     -25.00000000     -25.00000000     -25.00000000     -25.00000000     -25.00000000     -25.00000000     -25.00000000     -25.00000000
         -25.00000000     -25.00000000     -25.00000000     -25.00000000     -25.00000000     -25.00000000     -25.00000000     -25.00000000     -25.00000000     -25.00000000
         -25.00000000     -25.00000000     -25.00000000     -25.00000000     -25.00000000     -25.00000000     -25.00000000     -25.00000000     -25.00000000     -25.00000000
         -25.00000000     -25.00000000     -25.00000000     -25.00000000     -25.00000000     -25.00000000     -25.00000000     -25.00000000     -25.00000000     -25.00000000
         -25.00000000     -25.00000000     -25.00000000     -25.00000000     -25.00000000     -25.00000000     -25.00000000     -25.00000000     -25.00000000     -25.00000000
         -25.00000000     -25.00000000     -25.00000000     -25.00000000     -25.00000000     -25.00000000     -25.00000000     -25.00000000     -25.00000000     -25.00000000
         -25.00000000     -25.00000000     -25.00000000     -25.00000000     -25.00000000     -25.00000000     -25.00000000     -25.00000000     -25.00000000     -25.00000000
         -25.00000000     -25.00000000     -25.00000000     -25.00000000     -25.00000000     -25.00000000     -25.00000000     -25.00000000     -25.00000000     -25.00000000
         -25.00000000     -25.00000000     -25.00000000     -25.00000000     -25.00000000     -25.00000000     -25.00000000     -25.00000000     -25.00000000     -25.00000000
         -25.00000000     -25.00000000     -25.00000000     -25.00000000     -25.00000000     -25.00000000     -25.00000000     -25.00000000     -25.00000000     -25.00000000
         -25.00000000     -25.00000000     -25.00000000     -25.00000000     -25.00000000     -25.00000000     -25.00000000     -25.00000000     -25.00000000     -25.00000000
         -25.00000000     -25.00000000     -25.00000000     -25.00000000     -25.00000000     -25.00000000     -25.00000000     -25.00000000     -25.00000000     -25.00000000
         -25.00000000     -25.00000000     -25.00000000     -25.00000000     -25.00000000     -25.00000000     -25.00000000     -25.00000000     -25.00000000     -25.00000000
         -25.00000000     -25.00000000     -25.00000000     -25.00000000     -25.00000000     -25.00000000     -25.00000000     -25.00000000     -25.00000000     -25.00000000
         -25.00000000     -25.00000000     -25.00000000     -25.00000000     -25.00000000     -25.00000000     -25.00000000     -25.00000000     -25.00000000     -25.00000000
         -25.00000000     -25.00000000     -25.00000000     -25.00000000     -25.00000000     -25.00000000     -25.00000000     -25.00000000     -25.00000000     -25.00000000
         -25.00000000     -25.00000000     -25.00000000     -25.00000000     -25.00000000     -25.00000000     -25.00000000     -25.00000000     -25.00000000     -25.00000000
         -25.00000000     -25.00000000     -25.00000000     -25.00000000     -25.00000000     -25.00000000     -25.00000000     -25.00000000     -25.00000000     -25.00000000
         -25.00000000     -25.00000000     -25.00000000     -25.00000000     -25.00000000     -25.00000000     -25.00000000     -25.00000000     -25.00000000     -25.00000000
         -25.00000000     -25.00000000     -25.00000000     -25.00000000     -25.00000000     -25.00000000     -25.00000000     -25.00000000     -25.00000000     -25.00000000
         -25.00000000     -25.00000000     -25.00000000     -25.00000000     -25.00000000     -25.00000000     -25.00000000     -25.00000000     -25.00000000     -25.00000000
         -25.00000000     -25.00000000     -25.00000000     -25.00000000     -25.00000000     -25.00000000     -25.00000000     -25.00000000     -25.00000000     -25.00000000
         -25.00000000     -25.00000000     -25.00000000     -25.00000000     -25.00000000     -25.00000000     -25.00000000     -25.00000000     -25.00000000     -25.00000000
         -25.00000000     -25.00000000     -25.00000000     -25.00000000     -25.00000000     -25.00000000     -25.00000000     -25.00000000     -25.00000000     -25.00000000
    INTERNAL  FACTOR  1.0
         -25.00000000     -25.00000000     -25.00000000     -25.00000000     -25.00000000     -25.00000000     -25.00000000     -25.00000000     -25.00000000     -25.00000000
         -25.00000000     -25.00000000     -25.00000000     -25.00000000     -25.00000000     -25.00000000     -25.00000000     -25.00000000     -25.00000000     -25.00000000
         -25.00000000     -25.00000000     -25.00000000     -25.00000000     -25.00000000     -25.00000000     -25.00000000     -25.00000000     -25.00000000     -25.00000000
         -25.00000000     -25.00000000     -25.00000000     -25.00000000     -25.00000000     -25.00000000     -25.00000000     -25.00000000     -25.00000000     -25.00000000
         -25.00000000     -25.00000000     -25.00000000     -25.00000000     -25.00000000     -25.00000000     -25.00000000     -25.00000000     -25.00000000     -25.00000000
         -25.00000000     -25.00000000     -25.00000000     -25.00000000     -25.00000000     -25.00000000     -25.00000000     -25.00000000     -25.00000000     -25.00000000
         -25.00000000     -25.00000000     -25.00000000     -25.00000000     -25.00000000     -25.00000000     -25.00000000     -25.00000000     -25.00000000     -25.00000000
         -25.00000000     -25.00000000     -25.00000000     -25.00000000     -25.00000000     -25.00000000     -25.00000000     -25.00000000     -25.00000000     -25.00000000
         -25.00000000     -25.00000000     -25.00000000     -25.00000000     -25.00000000     -25.00000000     -25.00000000     -25.00000000     -25.00000000     -25.00000000
         -25.00000000     -25.00000000     -25.00000000     -25.00000000     -25.00000000     -25.00000000     -25.00000000     -25.00000000     -25.00000000     -25.00000000
         -25.00000000     -25.00000000     -25.00000000     -25.00000000     -25.00000000     -25.00000000     -25.00000000     -25.00000000     -25.00000000     -25.00000000
         -25.00000000     -25.00000000     -25.00000000     -25.00000000     -25.00000000     -25.00000000     -25.00000000     -25.00000000     -25.00000000     -25.00000000
         -25.00000000     -25.00000000     -25.00000000     -25.00000000     -25.00000000     -25.00000000     -25.00000000     -25.00000000     -25.00000000     -25.00000000
         -25.00000000     -25.00000000     -25.00000000     -25.00000000     -25.00000000     -25.00000000     -25.00000000     -25.00000000     -25.00000000     -25.00000000
         -25.00000000     -25.00000000     -25.00000000     -25.00000000     -25.00000000     -25.00000000     -25.00000000     -25.00000000     -25.00000000     -25.00000000
         -25.00000000     -25.00000000     -25.00000000     -25.00000000     -25.00000000     -25.00000000     -25.00000000     -25.00000000     -25.00000000     -25.00000000
         -25.00000000     -25.00000000     -25.00000000     -25.00000000     -25.00000000     -25.00000000     -25.00000000     -25.00000000     -25.00000000     -25.00000000
         -25.00000000     -25.00000000     -25.00000000     -25.00000000     -25.00000000     -25.00000000     -25.00000000     -25.00000000     -25.00000000     -25.00000000
         -25.00000000     -25.00000000     -25.00000000     -25.00000000     -25.00000000     -25.00000000     -25.00000000     -25.00000000     -25.00000000     -25.00000000
         -25.00000000     -25.00000000     -25.00000000     -25.00000000     -25.00000000     -25.00000000     -25.00000000     -25.00000000     -25.00000000     -25.00000000
         -25.00000000     -25.00000000     -25.00000000     -25.00000000     -25.00000000     -25.00000000     -25.00000000     -25.00000000     -25.00000000     -25.00000000
         -25.00000000     -25.00000000     -25.00000000     -25.00000000     -25.00000000     -25.00000000     -25.00000000     -25.00000000     -25.00000000     -25.00000000
         -25.00000000     -25.00000000     -25.00000000     -25.00000000     -25.00000000     -25.00000000     -25.00000000     -25.00000000     -25.00000000     -25.00000000
         -25.00000000     -25.00000000     -25.00000000     -25.00000000     -25.00000000     -25.00000000     -25.00000000     -25.00000000     -25.00000000     -25.00000000
    INTERNAL  FACTOR  1.0
         -25.00000000     -25.00000000     -25.00000000     -25.00000000     -25.00000000     -25.00000000     -25.00000000     -25.00000000     -25.00000000     -25.00000000
         -25.00000000     -25.00000000     -25.00000000     -25.00000000     -25.00000000     -25.00000000     -25.00000000     -25.00000000     -25.00000000     -25.00000000
         -25.00000000     -25.00000000     -25.00000000     -25.00000000     -25.00000000     -25.00000000     -25.00000000     -25.00000000     -25.00000000     -25.00000000
         -25.00000000     -25.00000000     -25.00000000     -25.00000000     -25.00000000     -25.00000000     -25.00000000     -25.00000000     -25.00000000     -25.00000000
         -25.00000000     -25.00000000     -25.00000000     -25.00000000     -25.00000000     -25.00000000     -25.00000000     -25.00000000     -25.00000000     -25.00000000
         -25.00000000     -25.00000000     -25.00000000     -25.00000000     -25.00000000     -25.00000000     -25.00000000     -25.00000000     -25.00000000     -25.00000000
         -25.00000000     -25.00000000     -25.00000000     -25.00000000     -25.00000000     -25.00000000     -25.00000000     -25.00000000     -25.00000000     -25.00000000
         -25.00000000     -25.00000000     -25.00000000     -25.00000000     -25.00000000     -25.00000000     -25.00000000     -25.00000000     -25.00000000     -25.00000000
         -25.00000000     -25.00000000     -25.00000000     -25.00000000     -25.00000000     -25.00000000     -25.00000000     -25.00000000     -25.00000000     -25.00000000
         -25.00000000     -25.00000000     -25.00000000     -25.00000000     -25.00000000     -25.00000000     -25.00000000     -25.00000000     -25.00000000     -25.00000000
         -25.00000000     -25.00000000     -25.00000000     -25.00000000     -25.00000000     -25.00000000     -25.00000000     -25.00000000     -25.00000000     -25.00000000
         -25.00000000     -25.00000000     -25.00000000     -25.00000000     -25.00000000     -25.00000000     -25.00000000     -25.00000000     -25.00000000     -25.00000000
         -25.00000000     -25.00000000     -25.00000000     -25.00000000     -25.00000000     -25.00000000     -25.00000000     -25.00000000     -25.00000000     -25.00000000
         -25.00000000     -25.00000000     -25.00000000     -25.00000000     -25.00000000     -25.00000000     -25.00000000     -25.00000000     -25.00000000     -25.00000000
         -25.00000000     -25.00000000     -25.00000000     -25.00000000     -25.00000000     -25.00000000     -25.00000000     -25.00000000     -25.00000000     -25.00000000
         -25.00000000     -25.00000000     -25.00000000     -25.00000000     -25.00000000     -25.00000000     -25.00000000     -25.00000000     -25.00000000     -25.00000000
         -25.00000000     -25.00000000     -25.00000000     -25.00000000     -25.00000000     -25.00000000     -25.00000000     -25.00000000     -25.00000000     -25.00000000
         -25.00000000     -25.00000000     -25.00000000     -25.00000000     -25.00000000     -25.00000000     -25.00000000     -25.00000000     -25.00000000     -25.00000000
         -25.00000000     -25.00000000     -25.00000000     -25.00000000     -25.00000000     -25.00000000     -25.00000000     -25.00000000     -25.00000000     -25.00000000
         -25.00000000     -25.00000000     -25.00000000     -25.00000000     -25.00000000     -25.00000000     -25.00000000     -25.00000000     -25.00000000     -25.00000000
         -25.00000000     -25.00000000     -25.00000000     -25.00000000     -25.00000000     -25.00000000     -25.00000000     -25.00000000     -25.00000000     -25.00000000
         -25.00000000     -25.00000000     -25.00000000     -25.00000000     -25.00000000     -25.00000000     -25.00000000     -25.00000000     -25.00000000     -25.00000000
         -25.00000000     -25.00000000     -25.00000000     -25.00000000     -25.00000000     -25.00000000     -25.00000000     -25.00000000     -25.00000000     -25.00000000
         -25.00000000     -25.00000000     -25.00000000     -25.00000000     -25.00000000     -25.00000000     -25.00000000     -25.00000000     -25.00000000     -25.00000000
END griddata

