# File generated by Flopy version 3.3.6 on 04/16/2023 at 21:07:21.
BEGIN options
  BUDGET  FILEOUT  project1-1_mf6.cbb
  HEAD  FILEOUT  project1-1_mf6.hds
END options

BEGIN period  1
  SAVE  HEAD  ALL
  SAVE  BUDGET  ALL
  PRINT  HEAD  LAST
END period  1

