# File generated by Flopy version 3.3.6 on 04/16/2023 at 20:55:04.
BEGIN options
  SAVE_FLOWS
END options

BEGIN dimensions
  MAXBOUND  10
END dimensions

BEGIN period  1
  1 9 1     -25.00000000
  1 9 2     -25.00000000
  1 9 3     -25.00000000
  1 9 4     -25.00000000
  1 9 5     -25.00000000
  1 9 6     -25.00000000
  1 9 7     -25.00000000
  1 9 8     -25.00000000
  1 9 9     -25.00000000
  1 9 10     -25.00000000
END period  1

