# File generated by Flopy version 3.3.6 on 04/16/2023 at 20:55:04.
BEGIN options
  COMPLEXITY  simple
END options

