# File generated by Flopy version 3.3.6 on 02/01/2024 at 17:47:48.
BEGIN options
  BUDGET  FILEOUT  project1-1_mf6.cbb
  HEAD  FILEOUT  project1-1_mf6.hds
END options

BEGIN period  1
  SAVE  HEAD  ALL
  SAVE  BUDGET  ALL
  PRINT  HEAD  LAST
END period  1

