# File generated by Flopy version 3.3.6 on 04/18/2023 at 20:00:32.
BEGIN options
  SAVE_FLOWS
END options

BEGIN griddata
  icelltype
    CONSTANT  1
  k
    CONSTANT    7300.00000000
END griddata

