# File generated by Flopy version 3.3.6 on 04/18/2023 at 20:00:32.
BEGIN options
  COMPLEXITY  simple
END options

