# File generated by Flopy version 3.3.6 on 02/01/2024 at 17:47:48.
BEGIN options
END options

BEGIN dimensions
  MAXBOUND  6
END dimensions

BEGIN period  1
  1 22 6  -5.00000000E+06
  2 22 6  -5.00000000E+06
  4 15 7  -8.00000000E+06
  5 15 7  -8.00000000E+06
  4 5 7  -1.50000000E+07
  5 5 7  -1.50000000E+07
END period  1

