# File generated by Flopy version 3.3.6 on 04/19/2023 at 23:23:20.
BEGIN options
END options

BEGIN packages
  DIS6  project1-1_mf6.dis  dis
  IC6  project1-1_mf6.ic  ic
  NPF6  project1-1_mf6.npf  npf
  CHD6  project1-1_mf6.chd  chd_0
  WEL6  project1-1_mf6.wel  wel_0
  RCH6  project1-1_mf6.rcha  rcha_0
  OC6  project1-1_mf6.oc  oc
END packages

