# File generated by Flopy version 3.3.6 on 04/16/2023 at 21:07:21.
BEGIN options
END options

BEGIN dimensions
  NLAY  5
  NROW  24
  NCOL  10
END dimensions

BEGIN griddata
  delr
    CONSTANT    1000.00000000
  delc
    CONSTANT    1000.00000000
  top
    CONSTANT       0.00000000
  botm  LAYERED
    CONSTANT     -50.00000000
    CONSTANT     -95.00000000
    CONSTANT    -100.00000000
    CONSTANT    -150.00000000
    CONSTANT    -175.00000000
END griddata

