# File generated by Flopy version 3.3.6 on 12/07/2022 at 20:41:42.
BEGIN options
  SAVE_FLOWS
  NEWTON
END options

BEGIN packages
  DIS6  gwf-uzt-2d-mf6.dis  dis
  IC6  gwf-uzt-2d-mf6.ic  ic
  NPF6  gwf-uzt-2d-mf6.npf  npf
  STO6  gwf-uzt-2d-mf6.sto  sto
  CHD6  gwf-uzt-2d-mf6.chd  chd-1
  UZF6  gwf-uzt-2d-mf6.uzf  uzf-1
  OC6  gwf-uzt-2d-mf6.oc  oc
END packages

