# File generated by Flopy version 3.3.6 on 12/07/2022 at 20:41:42.
BEGIN options
  SAVE_SPECIFIC_DISCHARGE
END options

BEGIN griddata
  icelltype
    CONSTANT  1
  k  LAYERED
    INTERNAL  FACTOR  1.0
           2.50000000       2.50000000       2.50000000       2.50000000       2.50000000       2.50000000       2.50000000       2.50000000       2.50000000       2.50000000       2.50000000       2.50000000       2.50000000       2.50000000       2.50000000       2.50000000       2.50000000       2.50000000       2.50000000       2.50000000       2.50000000       2.50000000       2.50000000       2.50000000       2.50000000       2.50000000       2.50000000       2.50000000       2.50000000       2.50000000       2.50000000       2.50000000       2.50000000       2.50000000       2.50000000       2.50000000       2.50000000       2.50000000       2.50000000       2.50000000
    INTERNAL  FACTOR  1.0
           2.50000000       2.50000000       2.50000000       2.50000000       2.50000000       2.50000000       2.50000000       2.50000000       2.50000000       2.50000000       2.50000000       2.50000000       2.50000000       2.50000000       2.50000000       2.50000000       2.50000000       2.50000000       2.50000000       2.50000000       2.50000000       2.50000000       2.50000000       2.50000000       2.50000000       2.50000000       2.50000000       2.50000000       2.50000000       2.50000000       2.50000000       2.50000000       2.50000000       2.50000000       2.50000000       2.50000000       2.50000000       2.50000000       2.50000000       2.50000000
    INTERNAL  FACTOR  1.0
           2.50000000       2.50000000       2.50000000       2.50000000       2.50000000       2.50000000       2.50000000       2.50000000       2.50000000       2.50000000       2.50000000       2.50000000       2.50000000       2.50000000       2.50000000       2.50000000       2.50000000       2.50000000       2.50000000       2.50000000       2.50000000       2.50000000       2.50000000       2.50000000       2.50000000       2.50000000       2.50000000       2.50000000       2.50000000       2.50000000       2.50000000       2.50000000       2.50000000       2.50000000       2.50000000       2.50000000       2.50000000       2.50000000       2.50000000       2.50000000
    INTERNAL  FACTOR  1.0
           2.50000000       2.50000000       2.50000000       2.50000000       2.50000000       2.50000000       2.50000000       2.50000000       2.50000000       2.50000000       2.50000000       2.50000000       2.50000000       2.50000000       2.50000000       2.50000000       2.50000000       2.50000000       2.50000000       2.50000000       2.50000000       2.50000000       2.50000000       2.50000000       2.50000000       2.50000000       2.50000000       2.50000000       2.50000000       2.50000000       2.50000000       2.50000000       2.50000000       2.50000000       2.50000000       2.50000000       2.50000000       2.50000000       2.50000000       2.50000000
    INTERNAL  FACTOR  1.0
           2.50000000       2.50000000       2.50000000       2.50000000       2.50000000       2.50000000       2.50000000       2.50000000       2.50000000       2.50000000       2.50000000       2.50000000       2.50000000       2.50000000       2.50000000       2.50000000       2.50000000       2.50000000       2.50000000       2.50000000       2.50000000       2.50000000       2.50000000       2.50000000       2.50000000       2.50000000       2.50000000       2.50000000       2.50000000       2.50000000       2.50000000       2.50000000       2.50000000       2.50000000       2.50000000       2.50000000       2.50000000       2.50000000       2.50000000       2.50000000
    INTERNAL  FACTOR  1.0
           2.50000000       2.50000000       2.50000000       2.50000000       2.50000000       2.50000000       2.50000000       2.50000000       2.50000000       2.50000000       2.50000000       2.50000000       2.50000000       2.50000000       2.50000000       2.50000000       2.50000000       2.50000000       2.50000000       2.50000000       2.50000000       2.50000000       2.50000000       2.50000000       2.50000000       2.50000000       2.50000000       2.50000000       2.50000000       2.50000000       2.50000000       2.50000000       2.50000000       2.50000000       2.50000000       2.50000000       2.50000000       2.50000000       2.50000000       2.50000000
    INTERNAL  FACTOR  1.0
           2.50000000       2.50000000       2.50000000       2.50000000       2.50000000       2.50000000       2.50000000       2.50000000       2.50000000       2.50000000       2.50000000       2.50000000       2.50000000       2.50000000       2.50000000       2.50000000       2.50000000       2.50000000       2.50000000       2.50000000       2.50000000       2.50000000       2.50000000       2.50000000       2.50000000       2.50000000       2.50000000       2.50000000       2.50000000       2.50000000       2.50000000       2.50000000       2.50000000       2.50000000       2.50000000       2.50000000       2.50000000       2.50000000       2.50000000       2.50000000
    INTERNAL  FACTOR  1.0
           2.50000000       2.50000000       2.50000000       2.50000000       2.50000000       2.50000000       2.50000000       2.50000000       2.50000000       2.50000000       2.50000000       2.50000000       2.50000000       2.50000000       2.50000000       2.50000000       2.50000000       2.50000000       2.50000000       2.50000000       2.50000000       2.50000000       2.50000000       2.50000000       2.50000000       2.50000000       2.50000000       2.50000000       2.50000000       2.50000000       2.50000000       2.50000000       2.50000000       2.50000000       2.50000000       2.50000000       2.50000000       2.50000000       2.50000000       2.50000000
    INTERNAL  FACTOR  1.0
           2.50000000       2.50000000       2.50000000       2.50000000       2.50000000       2.50000000       2.50000000       2.50000000       2.50000000       2.50000000       2.50000000       2.50000000       2.50000000       2.50000000       2.50000000       2.50000000       2.50000000       2.50000000       2.50000000       2.50000000       2.50000000       2.50000000       2.50000000       2.50000000       2.50000000       2.50000000       2.50000000       2.50000000       2.50000000       2.50000000       2.50000000       2.50000000       2.50000000       2.50000000       2.50000000       2.50000000       2.50000000       2.50000000       2.50000000       2.50000000
    INTERNAL  FACTOR  1.0
           2.50000000       2.50000000       2.50000000       2.50000000       2.50000000       2.50000000       2.50000000       2.50000000       2.50000000       2.50000000       2.50000000       2.50000000       2.50000000       2.50000000       2.50000000       2.50000000       2.50000000       2.50000000       2.50000000       2.50000000       2.50000000       2.50000000       2.50000000       2.50000000       2.50000000       2.50000000       2.50000000       2.50000000       2.50000000       2.50000000       2.50000000       2.50000000       2.50000000       2.50000000       2.50000000       2.50000000       2.50000000       2.50000000       2.50000000       2.50000000
    INTERNAL  FACTOR  1.0
           2.50000000       2.50000000       2.50000000       2.50000000       2.50000000       2.50000000       2.50000000       2.50000000       2.50000000       2.50000000       2.50000000       2.50000000       2.50000000       2.50000000       2.50000000       2.50000000       2.50000000       2.50000000       2.50000000       2.50000000       2.50000000       2.50000000       2.50000000       2.50000000       2.50000000       2.50000000       2.50000000       2.50000000       2.50000000       2.50000000       2.50000000       2.50000000       2.50000000       2.50000000       2.50000000       2.50000000       2.50000000       2.50000000       2.50000000       2.50000000
    INTERNAL  FACTOR  1.0
           2.50000000       2.50000000       2.50000000       2.50000000       2.50000000       2.50000000       2.50000000       2.50000000       2.50000000       2.50000000       2.50000000       2.50000000       2.50000000       2.50000000       2.50000000       2.50000000       2.50000000       2.50000000       2.50000000       2.50000000       2.50000000       2.50000000       2.50000000       2.50000000       2.50000000       2.50000000       2.50000000       2.50000000       2.50000000       2.50000000       2.50000000       2.50000000       2.50000000       2.50000000       2.50000000       2.50000000       2.50000000       2.50000000       2.50000000       2.50000000
    INTERNAL  FACTOR  1.0
           2.50000000       2.50000000       2.50000000       2.50000000       2.50000000       2.50000000       2.50000000       2.50000000       2.50000000       2.50000000       2.50000000       2.50000000       2.50000000       2.50000000       2.50000000       2.50000000       2.50000000       2.50000000       2.50000000       2.50000000       2.50000000       2.50000000       2.50000000       2.50000000       2.50000000       2.50000000       2.50000000       2.50000000       2.50000000       2.50000000       2.50000000       2.50000000       2.50000000       2.50000000       2.50000000       2.50000000       2.50000000       2.50000000       2.50000000       2.50000000
    INTERNAL  FACTOR  1.0
           2.50000000       2.50000000       2.50000000       2.50000000       2.50000000       2.50000000       2.50000000       2.50000000       2.50000000       2.50000000       2.50000000       2.50000000       2.50000000       2.50000000       2.50000000       2.50000000       2.50000000       2.50000000       2.50000000       2.50000000       2.50000000       2.50000000       2.50000000       2.50000000       2.50000000       2.50000000       2.50000000       2.50000000       2.50000000       2.50000000       2.50000000       2.50000000       2.50000000       2.50000000       2.50000000       2.50000000       2.50000000       2.50000000       2.50000000       2.50000000
    INTERNAL  FACTOR  1.0
           2.50000000       2.50000000       2.50000000       2.50000000       2.50000000       2.50000000       2.50000000       2.50000000       2.50000000       2.50000000       2.50000000       2.50000000       2.50000000       2.50000000       2.50000000       2.50000000       2.50000000       2.50000000       2.50000000       2.50000000       2.50000000       2.50000000       2.50000000       2.50000000       2.50000000       2.50000000       2.50000000       2.50000000       2.50000000       2.50000000       2.50000000       2.50000000       2.50000000       2.50000000       2.50000000       2.50000000       2.50000000       2.50000000       2.50000000       2.50000000
    INTERNAL  FACTOR  1.0
           2.50000000       2.50000000       2.50000000       2.50000000       2.50000000       2.50000000       2.50000000       2.50000000       2.50000000       2.50000000       2.50000000       2.50000000       2.50000000       2.50000000       2.50000000       2.50000000       2.50000000       2.50000000       2.50000000       2.50000000       2.50000000       2.50000000       2.50000000       2.50000000       2.50000000       2.50000000       2.50000000       2.50000000       2.50000000       2.50000000       2.50000000       2.50000000       2.50000000       2.50000000       2.50000000       2.50000000       2.50000000       2.50000000       2.50000000       2.50000000
    INTERNAL  FACTOR  1.0
           2.50000000       2.50000000       2.50000000       2.50000000       2.50000000       2.50000000       2.50000000       2.50000000       2.50000000       2.50000000       2.50000000       2.50000000       2.50000000       2.50000000       2.50000000       2.50000000       2.50000000       2.50000000       2.50000000       2.50000000       2.50000000       2.50000000       2.50000000       2.50000000       2.50000000       2.50000000       2.50000000       2.50000000       2.50000000       2.50000000       2.50000000       2.50000000       2.50000000       2.50000000       2.50000000       2.50000000       2.50000000       2.50000000       2.50000000       2.50000000
    INTERNAL  FACTOR  1.0
           2.50000000       2.50000000       2.50000000       2.50000000       2.50000000       2.50000000       2.50000000       2.50000000       2.50000000       2.50000000       2.50000000       2.50000000       2.50000000       2.50000000       2.50000000       2.50000000       2.50000000       2.50000000       2.50000000       2.50000000       2.50000000       2.50000000       2.50000000       2.50000000       2.50000000       2.50000000       2.50000000       2.50000000       2.50000000       2.50000000       2.50000000       2.50000000       2.50000000       2.50000000       2.50000000       2.50000000       2.50000000       2.50000000       2.50000000       2.50000000
    INTERNAL  FACTOR  1.0
           2.50000000       2.50000000       2.50000000       2.50000000       2.50000000       2.50000000       2.50000000       2.50000000       2.50000000       2.50000000       2.50000000       2.50000000       2.50000000       2.50000000       2.50000000       2.50000000       2.50000000       2.50000000       2.50000000       2.50000000       2.50000000       2.50000000       2.50000000       2.50000000       2.50000000       2.50000000       2.50000000       2.50000000       2.50000000       2.50000000       2.50000000       2.50000000       2.50000000       2.50000000       2.50000000       2.50000000       2.50000000       2.50000000       2.50000000       2.50000000
    INTERNAL  FACTOR  1.0
           2.50000000       2.50000000       2.50000000       2.50000000       2.50000000       2.50000000       2.50000000       2.50000000       2.50000000       2.50000000       2.50000000       2.50000000       2.50000000       2.50000000       2.50000000       2.50000000       2.50000000       2.50000000       2.50000000       2.50000000       2.50000000       2.50000000       2.50000000       2.50000000       2.50000000       2.50000000       2.50000000       2.50000000       2.50000000       2.50000000       2.50000000       2.50000000       2.50000000       2.50000000       2.50000000       2.50000000       2.50000000       2.50000000       2.50000000       2.50000000
  k33  LAYERED
    INTERNAL  FACTOR  1.0
           0.50000000       0.50000000       0.50000000       0.50000000       0.50000000       0.50000000       0.50000000       0.50000000       0.50000000       0.50000000       0.50000000       0.50000000       0.50000000       0.50000000       0.50000000       0.50000000       0.50000000       0.50000000       0.50000000       0.50000000       0.50000000       0.50000000       0.50000000       0.50000000       0.50000000       0.50000000       0.50000000       0.50000000       0.50000000       0.50000000       0.50000000       0.50000000       0.50000000       0.50000000       0.50000000       0.50000000       0.50000000       0.50000000       0.50000000       0.50000000
    INTERNAL  FACTOR  1.0
           0.50000000       0.50000000       0.50000000       0.50000000       0.50000000       0.50000000       0.50000000       0.50000000       0.50000000       0.50000000       0.50000000       0.50000000       0.50000000       0.50000000       0.50000000       0.50000000       0.50000000       0.50000000       0.50000000       0.50000000       0.50000000       0.50000000       0.50000000       0.50000000       0.50000000       0.50000000       0.50000000       0.50000000       0.50000000       0.50000000       0.50000000       0.50000000       0.50000000       0.50000000       0.50000000       0.50000000       0.50000000       0.50000000       0.50000000       0.50000000
    INTERNAL  FACTOR  1.0
           0.50000000       0.50000000       0.50000000       0.50000000       0.50000000       0.50000000       0.50000000       0.50000000       0.50000000       0.50000000       0.50000000       0.50000000       0.50000000       0.50000000       0.50000000       0.50000000       0.50000000       0.50000000       0.50000000       0.50000000       0.50000000       0.50000000       0.50000000       0.50000000       0.50000000       0.50000000       0.50000000       0.50000000       0.50000000       0.50000000       0.50000000       0.50000000       0.50000000       0.50000000       0.50000000       0.50000000       0.50000000       0.50000000       0.50000000       0.50000000
    INTERNAL  FACTOR  1.0
           0.50000000       0.50000000       0.50000000       0.50000000       0.50000000       0.50000000       0.50000000       0.50000000       0.50000000       0.50000000       0.50000000       0.50000000       0.50000000       0.50000000       0.50000000       0.50000000       0.50000000       0.50000000       0.50000000       0.50000000       0.50000000       0.50000000       0.50000000       0.50000000       0.50000000       0.50000000       0.50000000       0.50000000       0.50000000       0.50000000       0.50000000       0.50000000       0.50000000       0.50000000       0.50000000       0.50000000       0.50000000       0.50000000       0.50000000       0.50000000
    INTERNAL  FACTOR  1.0
           0.50000000       0.50000000       0.50000000       0.50000000       0.50000000       0.50000000       0.50000000       0.50000000       0.50000000       0.50000000       0.50000000       0.50000000       0.50000000       0.50000000       0.50000000       0.50000000       0.50000000       0.50000000       0.50000000       0.50000000       0.50000000       0.50000000       0.50000000       0.50000000       0.50000000       0.50000000       0.50000000       0.50000000       0.50000000       0.50000000       0.50000000       0.50000000       0.50000000       0.50000000       0.50000000       0.50000000       0.50000000       0.50000000       0.50000000       0.50000000
    INTERNAL  FACTOR  1.0
           0.50000000       0.50000000       0.50000000       0.50000000       0.50000000       0.50000000       0.50000000       0.50000000       0.50000000       0.50000000       0.50000000       0.50000000       0.50000000       0.50000000       0.50000000       0.50000000       0.50000000       0.50000000       0.50000000       0.50000000       0.50000000       0.50000000       0.50000000       0.50000000       0.50000000       0.50000000       0.50000000       0.50000000       0.50000000       0.50000000       0.50000000       0.50000000       0.50000000       0.50000000       0.50000000       0.50000000       0.50000000       0.50000000       0.50000000       0.50000000
    INTERNAL  FACTOR  1.0
           0.50000000       0.50000000       0.50000000       0.50000000       0.50000000       0.50000000       0.50000000       0.50000000       0.50000000       0.50000000       0.50000000       0.50000000       0.50000000       0.50000000       0.50000000       0.50000000       0.50000000       0.50000000       0.50000000       0.50000000       0.50000000       0.50000000       0.50000000       0.50000000       0.50000000       0.50000000       0.50000000       0.50000000       0.50000000       0.50000000       0.50000000       0.50000000       0.50000000       0.50000000       0.50000000       0.50000000       0.50000000       0.50000000       0.50000000       0.50000000
    INTERNAL  FACTOR  1.0
           0.50000000       0.50000000       0.50000000       0.50000000       0.50000000       0.50000000       0.50000000       0.50000000       0.50000000       0.50000000       0.50000000       0.50000000       0.50000000       0.50000000       0.50000000       0.50000000       0.50000000       0.50000000       0.50000000       0.50000000       0.50000000       0.50000000       0.50000000       0.50000000       0.50000000       0.50000000       0.50000000       0.50000000       0.50000000       0.50000000       0.50000000       0.50000000       0.50000000       0.50000000       0.50000000       0.50000000       0.50000000       0.50000000       0.50000000       0.50000000
    INTERNAL  FACTOR  1.0
           0.50000000       0.50000000       0.50000000       0.50000000       0.50000000       0.50000000       0.50000000       0.50000000       0.50000000       0.50000000       0.50000000       0.50000000       0.50000000       0.50000000       0.50000000       0.50000000       0.50000000       0.50000000       0.50000000       0.50000000       0.50000000       0.50000000       0.50000000       0.50000000       0.50000000       0.50000000       0.50000000       0.50000000       0.50000000       0.50000000       0.50000000       0.50000000       0.50000000       0.50000000       0.50000000       0.50000000       0.50000000       0.50000000       0.50000000       0.50000000
    INTERNAL  FACTOR  1.0
           0.50000000       0.50000000       0.50000000       0.50000000       0.50000000       0.50000000       0.50000000       0.50000000       0.50000000       0.50000000       0.50000000       0.50000000       0.50000000       0.50000000       0.50000000       0.50000000       0.50000000       0.50000000       0.50000000       0.50000000       0.50000000       0.50000000       0.50000000       0.50000000       0.50000000       0.50000000       0.50000000       0.50000000       0.50000000       0.50000000       0.50000000       0.50000000       0.50000000       0.50000000       0.50000000       0.50000000       0.50000000       0.50000000       0.50000000       0.50000000
    INTERNAL  FACTOR  1.0
           0.50000000       0.50000000       0.50000000       0.50000000       0.50000000       0.50000000       0.50000000       0.50000000       0.50000000       0.50000000       0.50000000       0.50000000       0.50000000       0.50000000       0.50000000       0.50000000       0.50000000       0.50000000       0.50000000       0.50000000       0.50000000       0.50000000       0.50000000       0.50000000       0.50000000       0.50000000       0.50000000       0.50000000       0.50000000       0.50000000       0.50000000       0.50000000       0.50000000       0.50000000       0.50000000       0.50000000       0.50000000       0.50000000       0.50000000       0.50000000
    INTERNAL  FACTOR  1.0
           0.50000000       0.50000000       0.50000000       0.50000000       0.50000000       0.50000000       0.50000000       0.50000000       0.50000000       0.50000000       0.50000000       0.50000000       0.50000000       0.50000000       0.50000000       0.50000000       0.50000000       0.50000000       0.50000000       0.50000000       0.50000000       0.50000000       0.50000000       0.50000000       0.50000000       0.50000000       0.50000000       0.50000000       0.50000000       0.50000000       0.50000000       0.50000000       0.50000000       0.50000000       0.50000000       0.50000000       0.50000000       0.50000000       0.50000000       0.50000000
    INTERNAL  FACTOR  1.0
           0.50000000       0.50000000       0.50000000       0.50000000       0.50000000       0.50000000       0.50000000       0.50000000       0.50000000       0.50000000       0.50000000       0.50000000       0.50000000       0.50000000       0.50000000       0.50000000       0.50000000       0.50000000       0.50000000       0.50000000       0.50000000       0.50000000       0.50000000       0.50000000       0.50000000       0.50000000       0.50000000       0.50000000       0.50000000       0.50000000       0.50000000       0.50000000       0.50000000       0.50000000       0.50000000       0.50000000       0.50000000       0.50000000       0.50000000       0.50000000
    INTERNAL  FACTOR  1.0
           0.50000000       0.50000000       0.50000000       0.50000000       0.50000000       0.50000000       0.50000000       0.50000000       0.50000000       0.50000000       0.50000000       0.50000000       0.50000000       0.50000000       0.50000000       0.50000000       0.50000000       0.50000000       0.50000000       0.50000000       0.50000000       0.50000000       0.50000000       0.50000000       0.50000000       0.50000000       0.50000000       0.50000000       0.50000000       0.50000000       0.50000000       0.50000000       0.50000000       0.50000000       0.50000000       0.50000000       0.50000000       0.50000000       0.50000000       0.50000000
    INTERNAL  FACTOR  1.0
           0.50000000       0.50000000       0.50000000       0.50000000       0.50000000       0.50000000       0.50000000       0.50000000       0.50000000       0.50000000       0.50000000       0.50000000       0.50000000       0.50000000       0.50000000       0.50000000       0.50000000       0.50000000       0.50000000       0.50000000       0.50000000       0.50000000       0.50000000       0.50000000       0.50000000       0.50000000       0.50000000       0.50000000       0.50000000       0.50000000       0.50000000       0.50000000       0.50000000       0.50000000       0.50000000       0.50000000       0.50000000       0.50000000       0.50000000       0.50000000
    INTERNAL  FACTOR  1.0
           0.50000000       0.50000000       0.50000000       0.50000000       0.50000000       0.50000000       0.50000000       0.50000000       0.50000000       0.50000000       0.50000000       0.50000000       0.50000000       0.50000000       0.50000000       0.50000000       0.50000000       0.50000000       0.50000000       0.50000000       0.50000000       0.50000000       0.50000000       0.50000000       0.50000000       0.50000000       0.50000000       0.50000000       0.50000000       0.50000000       0.50000000       0.50000000       0.50000000       0.50000000       0.50000000       0.50000000       0.50000000       0.50000000       0.50000000       0.50000000
    INTERNAL  FACTOR  1.0
           0.50000000       0.50000000       0.50000000       0.50000000       0.50000000       0.50000000       0.50000000       0.50000000       0.50000000       0.50000000       0.50000000       0.50000000       0.50000000       0.50000000       0.50000000       0.50000000       0.50000000       0.50000000       0.50000000       0.50000000       0.50000000       0.50000000       0.50000000       0.50000000       0.50000000       0.50000000       0.50000000       0.50000000       0.50000000       0.50000000       0.50000000       0.50000000       0.50000000       0.50000000       0.50000000       0.50000000       0.50000000       0.50000000       0.50000000       0.50000000
    INTERNAL  FACTOR  1.0
           0.50000000       0.50000000       0.50000000       0.50000000       0.50000000       0.50000000       0.50000000       0.50000000       0.50000000       0.50000000       0.50000000       0.50000000       0.50000000       0.50000000       0.50000000       0.50000000       0.50000000       0.50000000       0.50000000       0.50000000       0.50000000       0.50000000       0.50000000       0.50000000       0.50000000       0.50000000       0.50000000       0.50000000       0.50000000       0.50000000       0.50000000       0.50000000       0.50000000       0.50000000       0.50000000       0.50000000       0.50000000       0.50000000       0.50000000       0.50000000
    INTERNAL  FACTOR  1.0
           0.50000000       0.50000000       0.50000000       0.50000000       0.50000000       0.50000000       0.50000000       0.50000000       0.50000000       0.50000000       0.50000000       0.50000000       0.50000000       0.50000000       0.50000000       0.50000000       0.50000000       0.50000000       0.50000000       0.50000000       0.50000000       0.50000000       0.50000000       0.50000000       0.50000000       0.50000000       0.50000000       0.50000000       0.50000000       0.50000000       0.50000000       0.50000000       0.50000000       0.50000000       0.50000000       0.50000000       0.50000000       0.50000000       0.50000000       0.50000000
    INTERNAL  FACTOR  1.0
           0.50000000       0.50000000       0.50000000       0.50000000       0.50000000       0.50000000       0.50000000       0.50000000       0.50000000       0.50000000       0.50000000       0.50000000       0.50000000       0.50000000       0.50000000       0.50000000       0.50000000       0.50000000       0.50000000       0.50000000       0.50000000       0.50000000       0.50000000       0.50000000       0.50000000       0.50000000       0.50000000       0.50000000       0.50000000       0.50000000       0.50000000       0.50000000       0.50000000       0.50000000       0.50000000       0.50000000       0.50000000       0.50000000       0.50000000       0.50000000
END griddata

