# File generated by Flopy version 3.3.6 on 12/07/2022 at 20:41:42.
BEGIN options
  SAVE_FLOWS
END options

BEGIN packages
  DIS6  gwt-uzt-2d-mf6.dis  dis
  IC6  gwt-uzt-2d-mf6.ic  ic
  ADV6  gwt-uzt-2d-mf6.adv  adv
  DSP6  gwt-uzt-2d-mf6.dsp  dsp-1
  MST6  gwt-uzt-2d-mf6.mst  mst-1
  SSM6  gwt-uzt-2d-mf6.ssm  ssm
  UZT6  gwt-uzt-2d-mf6.uzt  uzf-1
  OC6  gwt-uzt-2d-mf6.oc  oc
END packages

