# File generated by Flopy version 3.3.6 on 12/07/2022 at 20:41:42.
BEGIN options
END options

BEGIN griddata
  porosity
    CONSTANT       0.45000000
END griddata

