# File generated by Flopy version 3.3.6 on 12/07/2022 at 20:41:15.
BEGIN options
  CONTINUE
END options

BEGIN timing
  TDIS6  flow.tdis
END timing

BEGIN models
  gwf6  flow.nam  flow
  gwt6  trans.nam  trans
END models

BEGIN exchanges
  GWF6-GWT6  flow.gwfgwt  flow  trans
END exchanges

BEGIN solutiongroup  1
  ims6  flow.ims  flow
  ims6  trans.ims  trans
END solutiongroup  1

