# File generated by Flopy version 3.3.6 on 12/07/2022 at 20:41:15.
BEGIN options
END options

BEGIN packages
  DIS6  trans.dis  dis
  MST6  trans.mst  mst
  IC6  trans.ic  ic
  ADV6  trans.adv  adv
  OC6  trans.oc  oc
END packages

