# File generated by Flopy version 3.3.6 on 12/07/2022 at 20:41:15.
BEGIN griddata
  strt  LAYERED
    INTERNAL  FACTOR  1.0
          35.00000000      35.00000000      35.00000000      35.00000000      35.00000000      35.00000000      35.00000000      35.00000000      35.00000000      35.00000000      35.00000000      35.00000000      35.00000000      35.00000000      35.00000000      35.00000000      35.00000000      35.00000000      35.00000000      35.00000000      35.00000000      35.00000000      35.00000000      35.00000000      35.00000000      35.00000000      35.00000000      35.00000000      35.00000000      35.00000000      35.00000000      35.00000000      35.00000000      35.00000000      35.00000000      35.00000000      35.00000000      35.00000000      35.00000000      35.00000000      35.00000000      35.00000000      35.00000000      35.00000000      35.00000000      35.00000000      35.00000000      35.00000000      35.00000000      35.00000000      35.00000000      35.00000000      35.00000000      35.00000000      35.00000000      35.00000000      35.00000000      35.00000000      35.00000000      35.00000000      35.00000000      35.00000000      35.00000000      35.00000000      35.00000000      35.00000000      35.00000000      35.00000000      35.00000000      35.00000000      35.00000000      35.00000000      35.00000000      35.00000000      35.00000000      35.00000000      35.00000000      35.00000000      35.00000000      35.00000000      35.00000000      35.00000000      35.00000000      35.00000000      35.00000000      35.00000000      35.00000000      35.00000000      35.00000000      35.00000000      35.00000000      17.50000000      17.50000000      17.50000000      17.50000000      17.50000000      17.50000000      17.50000000      17.50000000      17.50000000      17.50000000      17.50000000      17.50000000      17.50000000      17.50000000      17.50000000      17.50000000      17.50000000      17.50000000      17.50000000      17.50000000      17.50000000      17.50000000      17.50000000      17.50000000      17.50000000      17.50000000      17.50000000      17.50000000      17.50000000      17.50000000      17.50000000      17.50000000      17.50000000      17.50000000      17.50000000      17.50000000      17.50000000      17.50000000      17.50000000      17.50000000       0.00000000       0.00000000       0.00000000       0.00000000       0.00000000       0.00000000       0.00000000       0.00000000       0.00000000       0.00000000       0.00000000       0.00000000       0.00000000       0.00000000       0.00000000       0.00000000       0.00000000       0.00000000       0.00000000       0.00000000       0.00000000       0.00000000       0.00000000       0.00000000       0.00000000       0.00000000       0.00000000       0.00000000       0.00000000       0.00000000       0.00000000       0.00000000       0.00000000       0.00000000       0.00000000       0.00000000       0.00000000       0.00000000       0.00000000       0.00000000       0.00000000       0.00000000       0.00000000       0.00000000       0.00000000       0.00000000       0.00000000       0.00000000       0.00000000       0.00000000       0.00000000       0.00000000       0.00000000       0.00000000       0.00000000       0.00000000       0.00000000       0.00000000       0.00000000       0.00000000       0.00000000       0.00000000       0.00000000       0.00000000       0.00000000       0.00000000       0.00000000       0.00000000       0.00000000       0.00000000       0.00000000       0.00000000       0.00000000       0.00000000       0.00000000       0.00000000       0.00000000       0.00000000       0.00000000       0.00000000       0.00000000       0.00000000       0.00000000       0.00000000       0.00000000       0.00000000       0.00000000       0.00000000       0.00000000       0.00000000       0.00000000       0.00000000       0.00000000       0.00000000       0.00000000       0.00000000       0.00000000       0.00000000       0.00000000       0.00000000       0.00000000       0.00000000       0.00000000       0.00000000       0.00000000       0.00000000       0.00000000       0.00000000       0.00000000       0.00000000       0.00000000       0.00000000       0.00000000       0.00000000       0.00000000       0.00000000       0.00000000       0.00000000       0.00000000       0.00000000       0.00000000       0.00000000       0.00000000       0.00000000       0.00000000       0.00000000       0.00000000       0.00000000       0.00000000       0.00000000       0.00000000       0.00000000       0.00000000       0.00000000       0.00000000       0.00000000       0.00000000       0.00000000       0.00000000       0.00000000       0.00000000       0.00000000       0.00000000       0.00000000       0.00000000       0.00000000       0.00000000       0.00000000       0.00000000       0.00000000       0.00000000       0.00000000       0.00000000       0.00000000       0.00000000       0.00000000       0.00000000       0.00000000       0.00000000       0.00000000       0.00000000       0.00000000       0.00000000       0.00000000       0.00000000       0.00000000       0.00000000       0.00000000       0.00000000
    INTERNAL  FACTOR  1.0
          35.00000000      35.00000000      35.00000000      35.00000000      35.00000000      35.00000000      35.00000000      35.00000000      35.00000000      35.00000000      35.00000000      35.00000000      35.00000000      35.00000000      35.00000000      35.00000000      35.00000000      35.00000000      35.00000000      35.00000000      35.00000000      35.00000000      35.00000000      35.00000000      35.00000000      35.00000000      35.00000000      35.00000000      35.00000000      35.00000000      35.00000000      35.00000000      35.00000000      35.00000000      35.00000000      35.00000000      35.00000000      35.00000000      35.00000000      35.00000000      35.00000000      35.00000000      35.00000000      35.00000000      35.00000000      35.00000000      35.00000000      35.00000000      35.00000000      35.00000000      35.00000000      35.00000000      35.00000000      35.00000000      35.00000000      35.00000000      35.00000000      35.00000000      35.00000000      35.00000000      35.00000000      35.00000000      35.00000000      35.00000000      35.00000000      35.00000000      35.00000000      35.00000000      35.00000000      35.00000000      35.00000000      35.00000000      35.00000000      35.00000000      35.00000000      35.00000000      35.00000000      35.00000000      35.00000000      35.00000000      35.00000000      35.00000000      35.00000000      35.00000000      35.00000000      35.00000000      35.00000000      35.00000000      35.00000000      35.00000000      35.00000000      35.00000000      17.50000000      17.50000000      17.50000000      17.50000000      17.50000000      17.50000000      17.50000000      17.50000000      17.50000000      17.50000000      17.50000000      17.50000000      17.50000000      17.50000000      17.50000000      17.50000000      17.50000000      17.50000000      17.50000000      17.50000000      17.50000000      17.50000000      17.50000000      17.50000000      17.50000000      17.50000000      17.50000000      17.50000000      17.50000000      17.50000000      17.50000000      17.50000000      17.50000000      17.50000000      17.50000000      17.50000000      17.50000000      17.50000000      17.50000000      17.50000000       0.00000000       0.00000000       0.00000000       0.00000000       0.00000000       0.00000000       0.00000000       0.00000000       0.00000000       0.00000000       0.00000000       0.00000000       0.00000000       0.00000000       0.00000000       0.00000000       0.00000000       0.00000000       0.00000000       0.00000000       0.00000000       0.00000000       0.00000000       0.00000000       0.00000000       0.00000000       0.00000000       0.00000000       0.00000000       0.00000000       0.00000000       0.00000000       0.00000000       0.00000000       0.00000000       0.00000000       0.00000000       0.00000000       0.00000000       0.00000000       0.00000000       0.00000000       0.00000000       0.00000000       0.00000000       0.00000000       0.00000000       0.00000000       0.00000000       0.00000000       0.00000000       0.00000000       0.00000000       0.00000000       0.00000000       0.00000000       0.00000000       0.00000000       0.00000000       0.00000000       0.00000000       0.00000000       0.00000000       0.00000000       0.00000000       0.00000000       0.00000000       0.00000000       0.00000000       0.00000000       0.00000000       0.00000000       0.00000000       0.00000000       0.00000000       0.00000000       0.00000000       0.00000000       0.00000000       0.00000000       0.00000000       0.00000000       0.00000000       0.00000000       0.00000000       0.00000000       0.00000000       0.00000000       0.00000000       0.00000000       0.00000000       0.00000000       0.00000000       0.00000000       0.00000000       0.00000000       0.00000000       0.00000000       0.00000000       0.00000000       0.00000000       0.00000000       0.00000000       0.00000000       0.00000000       0.00000000       0.00000000       0.00000000       0.00000000       0.00000000       0.00000000       0.00000000       0.00000000       0.00000000       0.00000000       0.00000000       0.00000000       0.00000000       0.00000000       0.00000000       0.00000000       0.00000000       0.00000000       0.00000000       0.00000000       0.00000000       0.00000000       0.00000000       0.00000000       0.00000000       0.00000000       0.00000000       0.00000000       0.00000000       0.00000000       0.00000000       0.00000000       0.00000000       0.00000000       0.00000000       0.00000000       0.00000000       0.00000000       0.00000000       0.00000000       0.00000000       0.00000000       0.00000000       0.00000000       0.00000000       0.00000000       0.00000000       0.00000000       0.00000000       0.00000000       0.00000000       0.00000000       0.00000000       0.00000000       0.00000000       0.00000000       0.00000000       0.00000000       0.00000000       0.00000000       0.00000000       0.00000000       0.00000000
    INTERNAL  FACTOR  1.0
          35.00000000      35.00000000      35.00000000      35.00000000      35.00000000      35.00000000      35.00000000      35.00000000      35.00000000      35.00000000      35.00000000      35.00000000      35.00000000      35.00000000      35.00000000      35.00000000      35.00000000      35.00000000      35.00000000      35.00000000      35.00000000      35.00000000      35.00000000      35.00000000      35.00000000      35.00000000      35.00000000      35.00000000      35.00000000      35.00000000      35.00000000      35.00000000      35.00000000      35.00000000      35.00000000      35.00000000      35.00000000      35.00000000      35.00000000      35.00000000      35.00000000      35.00000000      35.00000000      35.00000000      35.00000000      35.00000000      35.00000000      35.00000000      35.00000000      35.00000000      35.00000000      35.00000000      35.00000000      35.00000000      35.00000000      35.00000000      35.00000000      35.00000000      35.00000000      35.00000000      35.00000000      35.00000000      35.00000000      35.00000000      35.00000000      35.00000000      35.00000000      35.00000000      35.00000000      35.00000000      35.00000000      35.00000000      35.00000000      35.00000000      35.00000000      35.00000000      35.00000000      35.00000000      35.00000000      35.00000000      35.00000000      35.00000000      35.00000000      35.00000000      35.00000000      35.00000000      35.00000000      35.00000000      35.00000000      35.00000000      35.00000000      35.00000000      35.00000000      17.50000000      17.50000000      17.50000000      17.50000000      17.50000000      17.50000000      17.50000000      17.50000000      17.50000000      17.50000000      17.50000000      17.50000000      17.50000000      17.50000000      17.50000000      17.50000000      17.50000000      17.50000000      17.50000000      17.50000000      17.50000000      17.50000000      17.50000000      17.50000000      17.50000000      17.50000000      17.50000000      17.50000000      17.50000000      17.50000000      17.50000000      17.50000000      17.50000000      17.50000000      17.50000000      17.50000000      17.50000000      17.50000000      17.50000000      17.50000000       0.00000000       0.00000000       0.00000000       0.00000000       0.00000000       0.00000000       0.00000000       0.00000000       0.00000000       0.00000000       0.00000000       0.00000000       0.00000000       0.00000000       0.00000000       0.00000000       0.00000000       0.00000000       0.00000000       0.00000000       0.00000000       0.00000000       0.00000000       0.00000000       0.00000000       0.00000000       0.00000000       0.00000000       0.00000000       0.00000000       0.00000000       0.00000000       0.00000000       0.00000000       0.00000000       0.00000000       0.00000000       0.00000000       0.00000000       0.00000000       0.00000000       0.00000000       0.00000000       0.00000000       0.00000000       0.00000000       0.00000000       0.00000000       0.00000000       0.00000000       0.00000000       0.00000000       0.00000000       0.00000000       0.00000000       0.00000000       0.00000000       0.00000000       0.00000000       0.00000000       0.00000000       0.00000000       0.00000000       0.00000000       0.00000000       0.00000000       0.00000000       0.00000000       0.00000000       0.00000000       0.00000000       0.00000000       0.00000000       0.00000000       0.00000000       0.00000000       0.00000000       0.00000000       0.00000000       0.00000000       0.00000000       0.00000000       0.00000000       0.00000000       0.00000000       0.00000000       0.00000000       0.00000000       0.00000000       0.00000000       0.00000000       0.00000000       0.00000000       0.00000000       0.00000000       0.00000000       0.00000000       0.00000000       0.00000000       0.00000000       0.00000000       0.00000000       0.00000000       0.00000000       0.00000000       0.00000000       0.00000000       0.00000000       0.00000000       0.00000000       0.00000000       0.00000000       0.00000000       0.00000000       0.00000000       0.00000000       0.00000000       0.00000000       0.00000000       0.00000000       0.00000000       0.00000000       0.00000000       0.00000000       0.00000000       0.00000000       0.00000000       0.00000000       0.00000000       0.00000000       0.00000000       0.00000000       0.00000000       0.00000000       0.00000000       0.00000000       0.00000000       0.00000000       0.00000000       0.00000000       0.00000000       0.00000000       0.00000000       0.00000000       0.00000000       0.00000000       0.00000000       0.00000000       0.00000000       0.00000000       0.00000000       0.00000000       0.00000000       0.00000000       0.00000000       0.00000000       0.00000000       0.00000000       0.00000000       0.00000000       0.00000000       0.00000000       0.00000000       0.00000000       0.00000000       0.00000000       0.00000000
    INTERNAL  FACTOR  1.0
          35.00000000      35.00000000      35.00000000      35.00000000      35.00000000      35.00000000      35.00000000      35.00000000      35.00000000      35.00000000      35.00000000      35.00000000      35.00000000      35.00000000      35.00000000      35.00000000      35.00000000      35.00000000      35.00000000      35.00000000      35.00000000      35.00000000      35.00000000      35.00000000      35.00000000      35.00000000      35.00000000      35.00000000      35.00000000      35.00000000      35.00000000      35.00000000      35.00000000      35.00000000      35.00000000      35.00000000      35.00000000      35.00000000      35.00000000      35.00000000      35.00000000      35.00000000      35.00000000      35.00000000      35.00000000      35.00000000      35.00000000      35.00000000      35.00000000      35.00000000      35.00000000      35.00000000      35.00000000      35.00000000      35.00000000      35.00000000      35.00000000      35.00000000      35.00000000      35.00000000      35.00000000      35.00000000      35.00000000      35.00000000      35.00000000      35.00000000      35.00000000      35.00000000      35.00000000      35.00000000      35.00000000      35.00000000      35.00000000      35.00000000      35.00000000      35.00000000      35.00000000      35.00000000      35.00000000      35.00000000      35.00000000      35.00000000      35.00000000      35.00000000      35.00000000      35.00000000      35.00000000      35.00000000      35.00000000      35.00000000      35.00000000      35.00000000      35.00000000      35.00000000      17.50000000      17.50000000      17.50000000      17.50000000      17.50000000      17.50000000      17.50000000      17.50000000      17.50000000      17.50000000      17.50000000      17.50000000      17.50000000      17.50000000      17.50000000      17.50000000      17.50000000      17.50000000      17.50000000      17.50000000      17.50000000      17.50000000      17.50000000      17.50000000      17.50000000      17.50000000      17.50000000      17.50000000      17.50000000      17.50000000      17.50000000      17.50000000      17.50000000      17.50000000      17.50000000      17.50000000      17.50000000      17.50000000      17.50000000      17.50000000       0.00000000       0.00000000       0.00000000       0.00000000       0.00000000       0.00000000       0.00000000       0.00000000       0.00000000       0.00000000       0.00000000       0.00000000       0.00000000       0.00000000       0.00000000       0.00000000       0.00000000       0.00000000       0.00000000       0.00000000       0.00000000       0.00000000       0.00000000       0.00000000       0.00000000       0.00000000       0.00000000       0.00000000       0.00000000       0.00000000       0.00000000       0.00000000       0.00000000       0.00000000       0.00000000       0.00000000       0.00000000       0.00000000       0.00000000       0.00000000       0.00000000       0.00000000       0.00000000       0.00000000       0.00000000       0.00000000       0.00000000       0.00000000       0.00000000       0.00000000       0.00000000       0.00000000       0.00000000       0.00000000       0.00000000       0.00000000       0.00000000       0.00000000       0.00000000       0.00000000       0.00000000       0.00000000       0.00000000       0.00000000       0.00000000       0.00000000       0.00000000       0.00000000       0.00000000       0.00000000       0.00000000       0.00000000       0.00000000       0.00000000       0.00000000       0.00000000       0.00000000       0.00000000       0.00000000       0.00000000       0.00000000       0.00000000       0.00000000       0.00000000       0.00000000       0.00000000       0.00000000       0.00000000       0.00000000       0.00000000       0.00000000       0.00000000       0.00000000       0.00000000       0.00000000       0.00000000       0.00000000       0.00000000       0.00000000       0.00000000       0.00000000       0.00000000       0.00000000       0.00000000       0.00000000       0.00000000       0.00000000       0.00000000       0.00000000       0.00000000       0.00000000       0.00000000       0.00000000       0.00000000       0.00000000       0.00000000       0.00000000       0.00000000       0.00000000       0.00000000       0.00000000       0.00000000       0.00000000       0.00000000       0.00000000       0.00000000       0.00000000       0.00000000       0.00000000       0.00000000       0.00000000       0.00000000       0.00000000       0.00000000       0.00000000       0.00000000       0.00000000       0.00000000       0.00000000       0.00000000       0.00000000       0.00000000       0.00000000       0.00000000       0.00000000       0.00000000       0.00000000       0.00000000       0.00000000       0.00000000       0.00000000       0.00000000       0.00000000       0.00000000       0.00000000       0.00000000       0.00000000       0.00000000       0.00000000       0.00000000       0.00000000       0.00000000       0.00000000       0.00000000       0.00000000       0.00000000
    INTERNAL  FACTOR  1.0
          35.00000000      35.00000000      35.00000000      35.00000000      35.00000000      35.00000000      35.00000000      35.00000000      35.00000000      35.00000000      35.00000000      35.00000000      35.00000000      35.00000000      35.00000000      35.00000000      35.00000000      35.00000000      35.00000000      35.00000000      35.00000000      35.00000000      35.00000000      35.00000000      35.00000000      35.00000000      35.00000000      35.00000000      35.00000000      35.00000000      35.00000000      35.00000000      35.00000000      35.00000000      35.00000000      35.00000000      35.00000000      35.00000000      35.00000000      35.00000000      35.00000000      35.00000000      35.00000000      35.00000000      35.00000000      35.00000000      35.00000000      35.00000000      35.00000000      35.00000000      35.00000000      35.00000000      35.00000000      35.00000000      35.00000000      35.00000000      35.00000000      35.00000000      35.00000000      35.00000000      35.00000000      35.00000000      35.00000000      35.00000000      35.00000000      35.00000000      35.00000000      35.00000000      35.00000000      35.00000000      35.00000000      35.00000000      35.00000000      35.00000000      35.00000000      35.00000000      35.00000000      35.00000000      35.00000000      35.00000000      35.00000000      35.00000000      35.00000000      35.00000000      35.00000000      35.00000000      35.00000000      35.00000000      35.00000000      35.00000000      35.00000000      35.00000000      35.00000000      35.00000000      35.00000000      17.50000000      17.50000000      17.50000000      17.50000000      17.50000000      17.50000000      17.50000000      17.50000000      17.50000000      17.50000000      17.50000000      17.50000000      17.50000000      17.50000000      17.50000000      17.50000000      17.50000000      17.50000000      17.50000000      17.50000000      17.50000000      17.50000000      17.50000000      17.50000000      17.50000000      17.50000000      17.50000000      17.50000000      17.50000000      17.50000000      17.50000000      17.50000000      17.50000000      17.50000000      17.50000000      17.50000000      17.50000000      17.50000000      17.50000000      17.50000000       0.00000000       0.00000000       0.00000000       0.00000000       0.00000000       0.00000000       0.00000000       0.00000000       0.00000000       0.00000000       0.00000000       0.00000000       0.00000000       0.00000000       0.00000000       0.00000000       0.00000000       0.00000000       0.00000000       0.00000000       0.00000000       0.00000000       0.00000000       0.00000000       0.00000000       0.00000000       0.00000000       0.00000000       0.00000000       0.00000000       0.00000000       0.00000000       0.00000000       0.00000000       0.00000000       0.00000000       0.00000000       0.00000000       0.00000000       0.00000000       0.00000000       0.00000000       0.00000000       0.00000000       0.00000000       0.00000000       0.00000000       0.00000000       0.00000000       0.00000000       0.00000000       0.00000000       0.00000000       0.00000000       0.00000000       0.00000000       0.00000000       0.00000000       0.00000000       0.00000000       0.00000000       0.00000000       0.00000000       0.00000000       0.00000000       0.00000000       0.00000000       0.00000000       0.00000000       0.00000000       0.00000000       0.00000000       0.00000000       0.00000000       0.00000000       0.00000000       0.00000000       0.00000000       0.00000000       0.00000000       0.00000000       0.00000000       0.00000000       0.00000000       0.00000000       0.00000000       0.00000000       0.00000000       0.00000000       0.00000000       0.00000000       0.00000000       0.00000000       0.00000000       0.00000000       0.00000000       0.00000000       0.00000000       0.00000000       0.00000000       0.00000000       0.00000000       0.00000000       0.00000000       0.00000000       0.00000000       0.00000000       0.00000000       0.00000000       0.00000000       0.00000000       0.00000000       0.00000000       0.00000000       0.00000000       0.00000000       0.00000000       0.00000000       0.00000000       0.00000000       0.00000000       0.00000000       0.00000000       0.00000000       0.00000000       0.00000000       0.00000000       0.00000000       0.00000000       0.00000000       0.00000000       0.00000000       0.00000000       0.00000000       0.00000000       0.00000000       0.00000000       0.00000000       0.00000000       0.00000000       0.00000000       0.00000000       0.00000000       0.00000000       0.00000000       0.00000000       0.00000000       0.00000000       0.00000000       0.00000000       0.00000000       0.00000000       0.00000000       0.00000000       0.00000000       0.00000000       0.00000000       0.00000000       0.00000000       0.00000000       0.00000000       0.00000000       0.00000000       0.00000000       0.00000000
    INTERNAL  FACTOR  1.0