# File generated by Flopy version 3.3.6 on 12/07/2022 at 20:40:29.
BEGIN options
END options

BEGIN period  1
  PRINT  BUDGET  LAST
END period  1

