# File generated by Flopy version 3.3.6 on 12/07/2022 at 20:40:29.
BEGIN griddata
  strt  LAYERED
    CONSTANT       3.05000000
    CONSTANT       9.14000000
END griddata

