# File generated by Flopy version 3.3.6 on 12/07/2022 at 20:41:09.
BEGIN options
  LENGTH_UNITS  m
END options

BEGIN dimensions
  NLAY  1
  NROW  31
  NCOL  46
END dimensions

BEGIN griddata
  delr
    CONSTANT      10.00000000
  delc
    CONSTANT      10.00000000
  top
    CONSTANT      10.00000000
  botm
    CONSTANT       0.00000000
END griddata

