# File generated by Flopy version 3.3.6 on 12/07/2022 at 20:41:09.
BEGIN options
  SAVE_FLOWS
END options

BEGIN packages
  DIS6  flow.dis  dis
  NPF6  flow.npf  npf
  IC6  flow.ic  ic
  CHD6  flow.chd  chd-1
  MAW6  flow.maw  maw-1
  MVR6  flow.mvr  mvr
  OC6  flow.oc  oc
END packages

