# File generated by Flopy version 3.3.6 on 12/07/2022 at 20:41:42.
BEGIN options
  BUDGET  FILEOUT  gwf-uzt-2d-mf6.bud
  HEAD  FILEOUT  gwf-uzt-2d-mf6.hds
  HEAD  PRINT_FORMAT  COLUMNS  10  WIDTH  15  DIGITS  6  GENERAL
END options

BEGIN period  1
  SAVE  HEAD  ALL
  SAVE  BUDGET  ALL
  PRINT  HEAD  LAST
  PRINT  BUDGET  ALL
END period  1

