# File generated by Flopy version 3.3.6 on 12/07/2022 at 20:42:43.
BEGIN options
END options

BEGIN timing
  TDIS6  ex-gwf-u1disv.tdis
END timing

BEGIN models
  gwf6  ex-gwf-u1disv.nam  ex-gwf-u1disv
END models

BEGIN exchanges
END exchanges

BEGIN solutiongroup  1
  ims6  ex-gwf-u1disv.ims  ex-gwf-u1disv
END solutiongroup  1

