# File generated by Flopy version 3.3.6 on 12/07/2022 at 20:40:30.
BEGIN options
  SAVE_FLOWS
END options

BEGIN packages
  DIS6  ex-gwf-maw-p03.dis  dis
  NPF6  ex-gwf-maw-p03.npf  npf
  IC6  ex-gwf-maw-p03.ic  ic
  CHD6  ex-gwf-maw-p03.chd  chd_0
  RCH6  ex-gwf-maw-p03.rcha  rcha_0
  MAW6  ex-gwf-maw-p03.maw  maw_0
  OC6  ex-gwf-maw-p03.oc  oc
END packages

