# File generated by Flopy version 3.3.6 on 12/07/2022 at 20:40:30.
BEGIN options
  READASARRAYS
END options

BEGIN period  1
  recharge
    CONSTANT       0.00456600
END period  1

