# File generated by Flopy version 3.3.6 on 12/07/2022 at 20:40:30.
BEGIN options
  BUDGET  FILEOUT  ex-gwf-maw-p03.cbc
  HEAD  FILEOUT  ex-gwf-maw-p03.hds
END options

BEGIN period  1
  SAVE  HEAD  LAST
  SAVE  BUDGET  LAST
  PRINT  BUDGET  LAST
END period  1

