# File generated by Flopy version 3.3.6 on 12/07/2022 at 20:40:55.
BEGIN options
  TIME_UNITS  days
END options

BEGIN dimensions
  NPER  2
END dimensions

BEGIN perioddata
       1.00000000  2       1.00000000
     365.00000000  730       1.00000000
END perioddata

