# File generated by Flopy version 3.3.6 on 12/07/2022 at 20:40:55.
BEGIN options
  XT3D_OFF
END options

BEGIN griddata
  alh
    CONSTANT      10.00000000
  ath1
    CONSTANT       3.00000000
END griddata

