# File generated by Flopy version 3.3.6 on 12/07/2022 at 20:40:50.
BEGIN options
END options

BEGIN griddata
  porosity
    CONSTANT       0.25000000
END griddata

