# File generated by Flopy version 3.3.6 on 12/07/2022 at 20:40:50.
BEGIN options
  DIGITS  10
  PRINT_INPUT
END options

BEGIN continuous  FILEOUT  trans.obs.csv
  SOURCELOC  CONCENTRATION  1 12 8
END continuous  FILEOUT  trans.obs.csv

