# File generated by Flopy version 3.3.6 on 12/07/2022 at 20:42:39.
BEGIN options
  BUDGET  FILEOUT  ex-gwf-sfr-p01b.cbc
  HEAD  FILEOUT  ex-gwf-sfr-p01b.hds
END options

BEGIN period  1
  SAVE  HEAD  LAST
  SAVE  BUDGET  LAST
END period  1

