# File generated by Flopy version 3.3.6 on 12/07/2022 at 20:40:00.
BEGIN options
  TS6  FILEIN  ex-gwf-csub-p03.head.ts
END options

BEGIN dimensions
  MAXBOUND  4
END dimensions

BEGIN period  1
  1 1 1  upper
  6 1 1  middle
  11 1 1  middle
  13 1 1  lower
END period  1

