# File generated by Flopy version 3.3.6 on 12/07/2022 at 20:40:48.
BEGIN options
END options

BEGIN dimensions
  MAXBOUND  1
END dimensions

BEGIN period  1
  1 12 8       2.50000000
END period  1

