# File generated by Flopy version 3.3.6 on 12/07/2022 at 20:41:08.
BEGIN options
  SORPTION
  ZERO_ORDER_DECAY
END options

BEGIN griddata
  thetaim
    CONSTANT       0.05000000
  zetaim
    CONSTANT       0.00100000
  decay
    CONSTANT  -5.00000000E-04
  decay_sorbed
    CONSTANT  -5.00000000E-04
  bulk_density
    CONSTANT       4.00000000
  distcoef
    CONSTANT       0.25000000
END griddata

