# File generated by Flopy version 3.3.6 on 04/18/2023 at 15:30:07.
BEGIN options
  COMPLEXITY  simple
END options

