# File generated by Flopy version 3.3.6 on 04/18/2023 at 15:30:07.
BEGIN options
END options

BEGIN dimensions
  NLAY  1
  NROW  101
  NCOL  101
END dimensions

BEGIN griddata
  delr
    CONSTANT       4.00000000
  delc
    CONSTANT       4.00000000
  top
    CONSTANT       0.00000000
  botm
    CONSTANT     -50.00000000
END griddata

