# File generated by Flopy version 3.3.6 on 04/16/2023 at 19:29:13.
BEGIN options
  SAVE_FLOWS
END options

BEGIN griddata
  icelltype
    CONSTANT  1
  k
    CONSTANT       1.00000000
END griddata

