# File generated by Flopy version 3.3.6 on 04/18/2023 at 15:30:07.
BEGIN options
  TIME_UNITS  time_units
END options

BEGIN dimensions
  NPER  1
END dimensions

BEGIN perioddata
       1.00000000  1       1.00000000
END perioddata

