# File generated by Flopy version 3.3.6 on 02/01/2024 at 17:48:21.
BEGIN options
END options

BEGIN packages
  DIS6  example01_mf6.dis  dis
  IC6  example01_mf6.ic  ic
  NPF6  example01_mf6.npf  npf
  CHD6  example01_mf6.chd  chd_0
  OC6  example01_mf6.oc  oc
END packages

