# File generated by Flopy version 3.3.6 on 04/18/2023 at 19:59:44.
BEGIN options
END options

BEGIN packages
  DIS6  example01_mf6.dis  dis
  IC6  example01_mf6.ic  ic
  NPF6  example01_mf6.npf  npf
  CHD6  example01_mf6.chd  chd_0
  OC6  example01_mf6.oc  oc
END packages

