# File generated by Flopy version 3.3.6 on 04/16/2023 at 19:29:13.
BEGIN options
  BUDGET  FILEOUT  example01_mf6.cbb
  HEAD  FILEOUT  example01_mf6.hds
END options

BEGIN period  1
  SAVE  HEAD  ALL
  SAVE  BUDGET  ALL
  PRINT  HEAD  LAST
END period  1

