# File generated by Flopy version 3.3.6 on 04/16/2023 at 19:29:11.
BEGIN options
  COMPLEXITY  simple
END options

