# File generated by Flopy version 3.3.6 on 04/18/2023 at 19:59:44.
BEGIN options
END options

BEGIN timing
  TDIS6  example01_mf6.tdis
END timing

BEGIN models
  gwf6  example01_mf6.nam  example01_mf6
END models

BEGIN exchanges
END exchanges

BEGIN solutiongroup  1
  ims6  example01_mf6.ims  example01_mf6
END solutiongroup  1

