# File generated by Flopy version 3.3.6 on 12/07/2022 at 20:40:41.
BEGIN options
END options

BEGIN griddata
  iconvert
    CONSTANT  0
  ss
    CONSTANT       0.00000000
  sy
    CONSTANT       0.00000000
END griddata

