# File generated by Flopy version 3.3.6 on 12/07/2022 at 20:40:43.
BEGIN options
  SAVE_FLOWS
END options

BEGIN packages
  DIS6  flow.dis  dis
  NPF6  flow.npf  npf
  IC6  flow.ic  ic
  BUY6  flow.buy  buy
  GHB6  flow.ghb  ghb-1
  WEL6  flow.wel  wel-1
  OC6  flow.oc  oc
END packages

