# File generated by Flopy version 3.3.6 on 12/07/2022 at 20:40:53.
BEGIN options
  SORPTION  freundlich
END options

BEGIN griddata
  porosity
    CONSTANT       0.37000000
  bulk_density
    CONSTANT       1.58700000
  distcoef
    CONSTANT       0.30000000
  sp2
    CONSTANT       0.70000000
END griddata

