# File generated by Flopy version 3.3.6 on 04/18/2023 at 19:18:39.
BEGIN options
  READASARRAYS
END options

BEGIN period  1
  recharge
    CONSTANT       0.00100000
END period  1

