# File generated by Flopy version 3.3.6 on 04/18/2023 at 19:59:57.
BEGIN options
END options

BEGIN dimensions
  NLAY  1
  NROW  11
  NCOL  11
END dimensions

BEGIN griddata
  delr
    CONSTANT    1000.00000000
  delc
    CONSTANT    1000.00000000
  top
    CONSTANT       0.00000000
  botm
    CONSTANT     -50.00000000
END griddata

