# File generated by Flopy version 3.3.6 on 04/18/2023 at 19:59:57.
BEGIN options
END options

BEGIN dimensions
  MAXBOUND  1
END dimensions

BEGIN period  1
  1 6 6   -1000.00000000
END period  1

