# File generated by Flopy version 3.3.6 on 04/18/2023 at 19:59:57.
BEGIN options
END options

BEGIN packages
  DIS6  example01_obleo.dis  dis
  IC6  example01_obleo.ic  ic
  NPF6  example01_obleo.npf  npf
  CHD6  example01_obleo.chd  chd_0
  WEL6  example01_obleo.wel  wel_0
  OC6  example01_obleo.oc  oc
END packages

