# File generated by Flopy version 3.3.6 on 02/01/2024 at 17:48:34.
BEGIN griddata
  strt
    INTERNAL  FACTOR  1.0
       100.00000000     100.00000000     100.00000000     100.00000000     100.00000000     100.00000000     100.00000000     100.00000000     100.00000000     100.00000000     100.00000000
       100.00000000     100.00000000     100.00000000     100.00000000     100.00000000     100.00000000     100.00000000     100.00000000     100.00000000     100.00000000     100.00000000
       100.00000000     100.00000000     100.00000000     100.00000000     100.00000000     100.00000000     100.00000000     100.00000000     100.00000000     100.00000000     100.00000000
       100.00000000     100.00000000     100.00000000     100.00000000     100.00000000     100.00000000     100.00000000     100.00000000     100.00000000     100.00000000     100.00000000
       100.00000000     100.00000000     100.00000000     100.00000000     100.00000000     100.00000000     100.00000000     100.00000000     100.00000000     100.00000000     100.00000000
       100.00000000     100.00000000     100.00000000     100.00000000     100.00000000     100.00000000     100.00000000     100.00000000     100.00000000     100.00000000     100.00000000
       100.00000000     100.00000000     100.00000000     100.00000000     100.00000000     100.00000000     100.00000000     100.00000000     100.00000000     100.00000000     100.00000000
       100.00000000     100.00000000     100.00000000     100.00000000     100.00000000     100.00000000     100.00000000     100.00000000     100.00000000     100.00000000     100.00000000
       100.00000000     100.00000000     100.00000000     100.00000000     100.00000000     100.00000000     100.00000000     100.00000000     100.00000000     100.00000000     100.00000000
       100.00000000     100.00000000     100.00000000     100.00000000     100.00000000     100.00000000     100.00000000     100.00000000     100.00000000     100.00000000     100.00000000
       100.00000000     100.00000000     100.00000000     100.00000000     100.00000000     100.00000000     100.00000000     100.00000000     100.00000000     100.00000000     100.00000000
END griddata

