# File generated by Flopy version 3.3.6 on 02/01/2024 at 17:48:34.
BEGIN options
END options

BEGIN timing
  TDIS6  example01_obleo.tdis
END timing

BEGIN models
  gwf6  example01_obleo.nam  example01_obleo
END models

BEGIN exchanges
END exchanges

BEGIN solutiongroup  1
  ims6  example01_obleo.ims  example01_obleo
END solutiongroup  1

