# File generated by Flopy version 3.3.6 on 12/07/2022 at 20:40:33.
BEGIN options
END options

BEGIN dimensions
  MAXBOUND  3
END dimensions

BEGIN period  1
  1 46 80      24.00000000
  1 47 80      24.00000000
  1 48 80      24.00000000
END period  1

