# File generated by Flopy version 3.3.6 on 12/07/2022 at 20:40:33.
BEGIN options
END options

BEGIN griddata
  icelltype
    CONSTANT  1
  k
    CONSTANT       1.00000000
END griddata

