# File generated by Flopy version 3.3.6 on 12/07/2022 at 20:40:06.
BEGIN options
END options

BEGIN dimensions
  MAXBOUND  2
END dimensions

BEGIN period  1
  1 13 1     988.00000000       0.03800000
  1 14 9    1045.00000000       0.03800000
END period  1

