# File generated by Flopy version 3.3.6 on 12/07/2022 at 20:41:10.
BEGIN options
END options

BEGIN griddata
  porosity
    CONSTANT       0.30000000
END griddata

