# File generated by Flopy version 3.3.6 on 12/07/2022 at 20:41:10.
BEGIN options
END options

BEGIN packagedata
  GWFHEAD  FILEIN  ../mf6gwf/flow.hds
  GWFBUDGET  FILEIN  ../mf6gwf/flow.bud
  GWFMOVER  FILEIN  ../mf6gwf/flow.mvr.bud
  LAK-1  FILEIN  ../mf6gwf/flow.lak.bud
  SFR-1  FILEIN  ../mf6gwf/flow.sfr.bud
END packagedata

