# File generated by Flopy version 3.3.6 on 12/07/2022 at 20:40:50.
BEGIN options
  SAVE_FLOWS
END options

BEGIN packages
  DISV6  flow.disv  disv
  NPF6  flow.npf  npf
  IC6  flow.ic  ic
  CHD6  flow.chd  chd_0
  WEL6  flow.wel  wel_0
  OC6  flow.oc  oc
END packages

