# File generated by Flopy version 3.3.6 on 02/01/2024 at 17:48:41.
BEGIN options
  COMPLEXITY  simple
END options

