# File generated by Flopy version 3.3.6 on 04/18/2023 at 20:00:06.
BEGIN options
  TIME_UNITS  years
END options

BEGIN dimensions
  NPER  1
END dimensions

BEGIN perioddata
       1.00000000  1       1.00000000
END perioddata

