# File generated by Flopy version 3.3.6 on 04/18/2023 at 20:33:26.
BEGIN options
  READASARRAYS
END options

BEGIN period  1
  recharge
    INTERNAL  FACTOR  1.0
         0.25000000       0.25000000       0.25000000       0.25000000       0.25000000       0.25000000       0.25000000       0.25000000       0.25000000       0.25000000       0.25000000
         0.25000000       0.25000000       0.25000000       0.25000000       0.25000000       0.25000000       0.25000000       0.25000000       0.25000000       0.25000000       0.25000000
         0.25000000       0.25000000       0.25000000       0.25000000       0.25000000       0.25000000       0.25000000       0.25000000       0.25000000       0.25000000       0.25000000
         0.25000000       0.25000000       0.25000000       0.25000000       0.25000000       0.25000000       0.25000000       0.25000000       0.25000000       0.25000000       0.25000000
         0.25000000       0.25000000       0.25000000       0.25000000       0.25000000       0.25000000       0.25000000       0.25000000       0.25000000       0.25000000       0.25000000
         0.25000000       0.25000000       0.25000000       0.25000000       0.25000000       0.25000000       0.25000000       0.25000000       0.25000000       0.25000000       0.25000000
         0.25000000       0.25000000       0.25000000       0.25000000       0.25000000       0.25000000       0.25000000       0.25000000       0.25000000       0.25000000       0.25000000
         0.25000000       0.25000000       0.25000000       0.25000000       0.25000000       0.25000000       0.25000000       0.25000000       0.25000000       0.25000000       0.25000000
         0.25000000       0.25000000       0.25000000       0.25000000       0.25000000       0.25000000       0.25000000       0.25000000       0.25000000       0.25000000       0.25000000
         0.25000000       0.25000000       0.25000000       0.25000000       0.25000000       0.25000000       0.25000000       0.25000000       0.25000000       0.25000000       0.25000000
         0.25000000       0.25000000       0.25000000       0.25000000       0.25000000       0.25000000       0.25000000       0.25000000       0.25000000       0.25000000       0.25000000
END period  1

