# File generated by Flopy version 3.3.6 on 02/01/2024 at 17:48:41.
BEGIN options
  BUDGET  FILEOUT  example02_obleo.cbb
  HEAD  FILEOUT  example02_obleo.hds
END options

BEGIN period  1
  SAVE  HEAD  ALL
  SAVE  BUDGET  ALL
  PRINT  HEAD  LAST
END period  1

