# File generated by Flopy version 3.3.6 on 04/18/2023 at 19:26:10.
BEGIN options
  READASARRAYS
END options

BEGIN period  1
  recharge
    INTERNAL  FACTOR  1.0
         2.50000000       2.50000000       2.50000000       2.50000000       2.50000000       2.50000000       2.50000000       2.50000000       2.50000000       2.50000000       2.50000000
         2.50000000       2.50000000       2.50000000       2.50000000       2.50000000       2.50000000       2.50000000       2.50000000       2.50000000       2.50000000       2.50000000
         2.50000000       2.50000000       2.50000000       2.50000000       2.50000000       2.50000000       2.50000000       2.50000000       2.50000000       2.50000000       2.50000000
         2.50000000       2.50000000       2.50000000       2.50000000       2.50000000       2.50000000       2.50000000       2.50000000       2.50000000       2.50000000       2.50000000
         2.50000000       2.50000000       2.50000000       2.50000000       2.50000000       2.50000000       2.50000000       2.50000000       2.50000000       2.50000000       2.50000000
         2.50000000       2.50000000       2.50000000       2.50000000       2.50000000       2.50000000       2.50000000       2.50000000       2.50000000       2.50000000       2.50000000
         2.50000000       2.50000000       2.50000000       2.50000000       2.50000000       2.50000000       2.50000000       2.50000000       2.50000000       2.50000000       2.50000000
         2.50000000       2.50000000       2.50000000       2.50000000       2.50000000       2.50000000       2.50000000       2.50000000       2.50000000       2.50000000       2.50000000
         2.50000000       2.50000000       2.50000000       2.50000000       2.50000000       2.50000000       2.50000000       2.50000000       2.50000000       2.50000000       2.50000000
         2.50000000       2.50000000       2.50000000       2.50000000       2.50000000       2.50000000       2.50000000       2.50000000       2.50000000       2.50000000       2.50000000
         2.50000000       2.50000000       2.50000000       2.50000000       2.50000000       2.50000000       2.50000000       2.50000000       2.50000000       2.50000000       2.50000000
END period  1

