# File generated by Flopy version 3.3.6 on 02/01/2024 at 17:48:41.
BEGIN options
END options

BEGIN dimensions
  MAXBOUND  1
END dimensions

BEGIN period  1
  1 6 6  -2.11400000E+09
END period  1

