# File generated by Flopy version 3.3.6 on 04/18/2023 at 20:00:06.
BEGIN options
  SAVE_FLOWS
END options

BEGIN dimensions
  MAXBOUND  22
END dimensions

BEGIN period  1
  1 1 1       0.00000000
  1 1 11       0.00000000
  1 2 1       0.00000000
  1 2 11       0.00000000
  1 3 1       0.00000000
  1 3 11       0.00000000
  1 4 1       0.00000000
  1 4 11       0.00000000
  1 5 1       0.00000000
  1 5 11       0.00000000
  1 6 1       0.00000000
  1 6 11       0.00000000
  1 7 1       0.00000000
  1 7 11       0.00000000
  1 8 1       0.00000000
  1 8 11       0.00000000
  1 9 1       0.00000000
  1 9 11       0.00000000
  1 10 1       0.00000000
  1 10 11       0.00000000
  1 11 1       0.00000000
  1 11 11       0.00000000
END period  1

