# File generated by Flopy version 3.3.6 on 04/18/2023 at 20:00:06.
BEGIN options
END options

BEGIN dimensions
  MAXBOUND  1
END dimensions

BEGIN period  1
  1 6 6  -1.00000000E+09
END period  1

