# File generated by Flopy version 3.3.6 on 04/18/2023 at 20:00:06.
BEGIN options
  BUDGET  FILEOUT  example02_obleo.cbb
  HEAD  FILEOUT  example02_obleo.hds
END options

BEGIN period  1
  SAVE  HEAD  ALL
  SAVE  BUDGET  ALL
  PRINT  HEAD  LAST
END period  1

