# File generated by Flopy version 3.3.6 on 02/01/2024 at 17:48:41.
BEGIN options
END options

BEGIN timing
  TDIS6  example02_obleo.tdis
END timing

BEGIN models
  gwf6  example02_obleo.nam  example02_obleo
END models

BEGIN exchanges
END exchanges

BEGIN solutiongroup  1
  ims6  example02_obleo.ims  example02_obleo
END solutiongroup  1

