# File generated by Flopy version 3.3.6 on 04/16/2023 at 18:53:17.
BEGIN options
END options

BEGIN packages
  DIS6  tutorial01_mf6.dis  dis
  IC6  tutorial01_mf6.ic  ic
  NPF6  tutorial01_mf6.npf  npf
  CHD6  tutorial01_mf6.chd  chd_0
  OC6  tutorial01_mf6.oc  oc
END packages

