# File generated by Flopy version 3.3.6 on 12/07/2022 at 20:41:05.
BEGIN options
  READASARRAYS
  PRINT_FLOWS
END options

BEGIN period  1
  recharge
    CONSTANT       0.00114155
END period  1

