# File generated by Flopy version 3.3.6 on 12/07/2022 at 20:41:05.
BEGIN options
  SORPTION  linear
END options

BEGIN griddata
  porosity
    CONSTANT       0.30000000
  bulk_density
    CONSTANT       1.70000000
  distcoef
    CONSTANT       0.17600000
END griddata

