# File generated by Flopy version 3.3.6 on 12/07/2022 at 20:40:54.
BEGIN options
END options

BEGIN griddata
  thetaim
    CONSTANT       1.58700000
  zetaim
    CONSTANT      20.00000000
END griddata

