# File generated by Flopy version 3.3.6 on 12/07/2022 at 20:40:10.
BEGIN options
  SAVE_SPECIFIC_DISCHARGE
END options

BEGIN griddata
  icelltype
    CONSTANT  1
  k
    CONSTANT      30.00000000
  k33
    CONSTANT      30.00000000
END griddata

