# File generated by Flopy version 3.3.6 on 12/07/2022 at 20:40:10.
BEGIN options
  BUDGET  FILEOUT  ex-gwf-lak-p02.cbc
  HEAD  FILEOUT  ex-gwf-lak-p02.hds
END options

BEGIN period  1
  SAVE  HEAD  LAST
  SAVE  BUDGET  LAST
END period  1

