# File generated by Flopy version 3.3.6 on 12/07/2022 at 20:40:10.
BEGIN options
  DIGITS  10
  PRINT_INPUT
END options

BEGIN continuous  FILEOUT  ex-gwf-lak-p02.lak.obs.csv
  lake1  stage  1
  lake2  stage  2
END continuous  FILEOUT  ex-gwf-lak-p02.lak.obs.csv

