# File generated by Flopy version 3.3.6 on 12/07/2022 at 20:41:10.
BEGIN options
  READASARRAYS
END options

BEGIN period  1
  recharge
    CONSTANT       0.00479000
END period  1

