# File generated by Flopy version 3.3.6 on 12/07/2022 at 20:42:44.
BEGIN options
  SAVE_FLOWS
END options

BEGIN packages
  DIS6  inner.dis  dis
  IC6  inner.ic  ic
  NPF6  inner.npf  npf
  OC6  inner.oc  oc
END packages

