# File generated by Flopy version 3.3.6 on 12/07/2022 at 20:40:30.
BEGIN options
  SAVE_SPECIFIC_DISCHARGE
END options

BEGIN griddata
  icelltype  LAYERED
    CONSTANT  1
    CONSTANT  0
    CONSTANT  0
    CONSTANT  0
    CONSTANT  0
    CONSTANT  0
    CONSTANT  0
    CONSTANT  0
    CONSTANT  0
    CONSTANT  0
    CONSTANT  0
    CONSTANT  0
    CONSTANT  0
    CONSTANT  0
    CONSTANT  0
    CONSTANT  0
    CONSTANT  0
    CONSTANT  0
    CONSTANT  0
    CONSTANT  0
    CONSTANT  0
    CONSTANT  0
    CONSTANT  0
    CONSTANT  0
    CONSTANT  0
    CONSTANT  0
    CONSTANT  0
    CONSTANT  0
    CONSTANT  0
    CONSTANT  0
    CONSTANT  0
    CONSTANT  0
    CONSTANT  0
    CONSTANT  0
    CONSTANT  0
    CONSTANT  0
    CONSTANT  0
    CONSTANT  0
    CONSTANT  0
    CONSTANT  0
    CONSTANT  0
  k  LAYERED
    INTERNAL  FACTOR  1.0
         250.00000000     250.00000000     250.00000000     250.00000000     250.00000000     250.00000000     250.00000000     250.00000000     250.00000000     250.00000000     250.00000000     250.00000000     250.00000000     250.00000000     250.00000000     250.00000000     250.00000000     250.00000000     250.00000000     250.00000000     250.00000000     250.00000000     250.00000000     250.00000000     250.00000000     250.00000000     250.00000000
         250.00000000     250.00000000     250.00000000     250.00000000     250.00000000     250.00000000     250.00000000     250.00000000     250.00000000     250.00000000     250.00000000     250.00000000     250.00000000     250.00000000     250.00000000     250.00000000     250.00000000     250.00000000     250.00000000     250.00000000     250.00000000     250.00000000     250.00000000     250.00000000     250.00000000     250.00000000     250.00000000
         250.00000000     250.00000000     250.00000000     250.00000000     250.00000000     250.00000000     250.00000000     250.00000000     250.00000000     250.00000000     250.00000000     250.00000000     250.00000000     250.00000000     250.00000000     250.00000000     250.00000000     250.00000000     250.00000000     250.00000000     250.00000000     250.00000000     250.00000000     250.00000000     250.00000000     250.00000000     250.00000000
         250.00000000     250.00000000     250.00000000     250.00000000     250.00000000     250.00000000     250.00000000     250.00000000     250.00000000     250.00000000     250.00000000     250.00000000     250.00000000     250.00000000     250.00000000     250.00000000     250.00000000     250.00000000     250.00000000     250.00000000     250.00000000     250.00000000     250.00000000     250.00000000     250.00000000     250.00000000     250.00000000
         250.00000000     250.00000000     250.00000000     250.00000000     250.00000000     250.00000000     250.00000000     250.00000000     250.00000000     250.00000000     250.00000000     250.00000000     250.00000000     250.00000000     250.00000000     250.00000000     250.00000000     250.00000000     250.00000000     250.00000000     250.00000000     250.00000000     250.00000000     250.00000000     250.00000000     250.00000000     250.00000000
         250.00000000     250.00000000     250.00000000     250.00000000     250.00000000     250.00000000     250.00000000     250.00000000     250.00000000     250.00000000     250.00000000     250.00000000     250.00000000     250.00000000     250.00000000     250.00000000     250.00000000     250.00000000     250.00000000     250.00000000     250.00000000     250.00000000     250.00000000     250.00000000     250.00000000     250.00000000     250.00000000
         250.00000000     250.00000000     250.00000000     250.00000000     250.00000000     250.00000000     250.00000000     250.00000000     250.00000000     250.00000000     250.00000000     250.00000000     250.00000000     250.00000000     250.00000000     250.00000000     250.00000000     250.00000000     250.00000000     250.00000000     250.00000000     250.00000000     250.00000000     250.00000000     250.00000000     250.00000000     250.00000000
         250.00000000     250.00000000     250.00000000     250.00000000     250.00000000     250.00000000     250.00000000     250.00000000     250.00000000     250.00000000     250.00000000     250.00000000     250.00000000     250.00000000     250.00000000     250.00000000     250.00000000     250.00000000     250.00000000     250.00000000     250.00000000     250.00000000     250.00000000     250.00000000     250.00000000     250.00000000     250.00000000
         250.00000000     250.00000000     250.00000000     250.00000000     250.00000000     250.00000000     250.00000000     250.00000000     250.00000000     250.00000000     250.00000000     250.00000000     250.00000000     250.00000000     250.00000000     250.00000000     250.00000000     250.00000000     250.00000000     250.00000000     250.00000000     250.00000000     250.00000000     250.00000000     250.00000000     250.00000000     250.00000000
         250.00000000     250.00000000     250.00000000     250.00000000     250.00000000     250.00000000     250.00000000     250.00000000     250.00000000     250.00000000     250.00000000     250.00000000     250.00000000     250.00000000     250.00000000     250.00000000     250.00000000     250.00000000     250.00000000     250.00000000     250.00000000     250.00000000     250.00000000     250.00000000     250.00000000     250.00000000     250.00000000
         250.00000000     250.00000000     250.00000000     250.00000000     250.00000000     250.00000000     250.00000000     250.00000000     250.00000000     250.00000000     250.00000000     250.00000000     250.00000000     250.00000000     250.00000000     250.00000000     250.00000000     250.00000000     250.00000000     250.00000000     250.00000000     250.00000000     250.00000000     250.00000000     250.00000000     250.00000000     250.00000000
         250.00000000     250.00000000     250.00000000     250.00000000     250.00000000     250.00000000     250.00000000     250.00000000     250.00000000     250.00000000     250.00000000     250.00000000     250.00000000     250.00000000     250.00000000     250.00000000     250.00000000     250.00000000     250.00000000     250.00000000     250.00000000     250.00000000     250.00000000     250.00000000     250.00000000     250.00000000     250.00000000
         250.00000000     250.00000000     250.00000000     250.00000000     250.00000000     250.00000000     250.00000000     250.00000000     250.00000000     250.00000000     250.00000000     250.00000000     250.00000000     250.00000000     250.00000000     250.00000000     250.00000000     250.00000000     250.00000000     250.00000000     250.00000000     250.00000000     250.00000000     250.00000000     250.00000000     250.00000000     250.00000000
         250.00000000     250.00000000     250.00000000     250.00000000     250.00000000     250.00000000     250.00000000     250.00000000     250.00000000     250.00000000     250.00000000     250.00000000     250.00000000     250.00000000     250.00000000     250.00000000     250.00000000     250.00000000     250.00000000     250.00000000     250.00000000     250.00000000     250.00000000     250.00000000     250.00000000     250.00000000     250.00000000
         250.00000000     250.00000000     250.00000000     250.00000000     250.00000000     250.00000000     250.00000000     250.00000000     250.00000000     250.00000000     250.00000000     250.00000000     250.00000000     250.00000000     250.00000000     250.00000000     250.00000000     250.00000000     250.00000000     250.00000000     250.00000000     250.00000000     250.00000000     250.00000000     250.00000000     250.00000000     250.00000000
         250.00000000     250.00000000     250.00000000     250.00000000     250.00000000     250.00000000     250.00000000     250.00000000     250.00000000     250.00000000     250.00000000     250.00000000     250.00000000     250.00000000     250.00000000     250.00000000     250.00000000     250.00000000     250.00000000     250.00000000     250.00000000     250.00000000     250.00000000     250.00000000     250.00000000     250.00000000     250.00000000
    INTERNAL  FACTOR  1.0
         250.00000000     250.00000000     250.00000000     250.00000000     250.00000000     250.00000000     250.00000000     250.00000000     250.00000000     250.00000000     250.00000000     250.00000000     250.00000000     250.00000000     250.00000000     250.00000000     250.00000000     250.00000000     250.00000000     250.00000000     250.00000000     250.00000000     250.00000000     250.00000000     250.00000000     250.00000000     250.00000000
         250.00000000     250.00000000     250.00000000     250.00000000     250.00000000     250.00000000     250.00000000     250.00000000     250.00000000     250.00000000     250.00000000     250.00000000     250.00000000     250.00000000     250.00000000     250.00000000     250.00000000     250.00000000     250.00000000     250.00000000     250.00000000     250.00000000     250.00000000     250.00000000     250.00000000     250.00000000     250.00000000
         250.00000000     250.00000000     250.00000000     250.00000000     250.00000000     250.00000000     250.00000000     250.00000000     250.00000000     250.00000000     250.00000000     250.00000000     250.00000000     250.00000000     250.00000000     250.00000000     250.00000000     250.00000000     250.00000000     250.00000000     250.00000000     250.00000000     250.00000000     250.00000000     250.00000000     250.00000000     250.00000000
         250.00000000     250.00000000     250.00000000     250.00000000     250.00000000     250.00000000     250.00000000     250.00000000     250.00000000     250.00000000     250.00000000     250.00000000     250.00000000     250.00000000     250.00000000     250.00000000     250.00000000     250.00000000     250.00000000     250.00000000     250.00000000     250.00000000     250.00000000     250.00000000     250.00000000     250.00000000     250.00000000
         250.00000000     250.00000000     250.00000000     250.00000000     250.00000000     250.00000000     250.00000000     250.00000000     250.00000000     250.00000000     250.00000000     250.00000000     250.00000000     250.00000000     250.00000000     250.00000000     250.00000000     250.00000000     250.00000000     250.00000000     250.00000000     250.00000000     250.00000000     250.00000000     250.00000000     250.00000000     250.00000000
         250.00000000     250.00000000     250.00000000     250.00000000     250.00000000     250.00000000     250.00000000     250.00000000     250.00000000     250.00000000     250.00000000     250.00000000     250.00000000     250.00000000     250.00000000     250.00000000     250.00000000     250.00000000     250.00000000     250.00000000     250.00000000     250.00000000     250.00000000     250.00000000     250.00000000     250.00000000     250.00000000
         250.00000000     250.00000000     250.00000000     250.00000000     250.00000000     250.00000000     250.00000000     250.00000000     250.00000000     250.00000000     250.00000000     250.00000000     250.00000000     250.00000000     250.00000000     250.00000000     250.00000000     250.00000000     250.00000000     250.00000000     250.00000000     250.00000000     250.00000000     250.00000000     250.00000000     250.00000000     250.00000000
         250.00000000     250.00000000     250.00000000     250.00000000     250.00000000     250.00000000     250.00000000     250.00000000     250.00000000     250.00000000     250.00000000     250.00000000     250.00000000     250.00000000     250.00000000     250.00000000     250.00000000     250.00000000     250.00000000     250.00000000     250.00000000     250.00000000     250.00000000     250.00000000     250.00000000     250.00000000     250.00000000
         250.00000000     250.00000000     250.00000000     250.00000000     250.00000000     250.00000000     250.00000000     250.00000000     250.00000000     250.00000000     250.00000000     250.00000000     250.00000000     250.00000000     250.00000000     250.00000000     250.00000000     250.00000000     250.00000000     250.00000000     250.00000000     250.00000000     250.00000000     250.00000000     250.00000000     250.00000000     250.00000000
         250.00000000     250.00000000     250.00000000     250.00000000     250.00000000     250.00000000     250.00000000     250.00000000     250.00000000     250.00000000     250.00000000     250.00000000     250.00000000     250.00000000     250.00000000     250.00000000     250.00000000     250.00000000     250.00000000     250.00000000     250.00000000     250.00000000     250.00000000     250.00000000     250.00000000     250.00000000     250.00000000
         250.00000000     250.00000000     250.00000000     250.00000000     250.00000000     250.00000000     250.00000000     250.00000000     250.00000000     250.00000000     250.00000000     250.00000000     250.00000000     250.00000000     250.00000000     250.00000000     250.00000000     250.00000000     250.00000000     250.00000000     250.00000000     250.00000000     250.00000000     250.00000000     250.00000000     250.00000000     250.00000000
         250.00000000     250.00000000     250.00000000     250.00000000     250.00000000     250.00000000     250.00000000     250.00000000     250.00000000     250.00000000     250.00000000     250.00000000     250.00000000     250.00000000     250.00000000     250.00000000     250.00000000     250.00000000     250.00000000     250.00000000     250.00000000     250.00000000     250.00000000     250.00000000     250.00000000     250.00000000     250.00000000
         250.00000000     250.00000000     250.00000000     250.00000000     250.00000000     250.00000000     250.00000000     250.00000000     250.00000000     250.00000000     250.00000000     250.00000000     250.00000000     250.00000000     250.00000000     250.00000000     250.00000000     250.00000000     250.00000000     250.00000000     250.00000000     250.00000000     250.00000000     250.00000000     250.00000000     250.00000000     250.00000000
         250.00000000     250.00000000     250.00000000     250.00000000     250.00000000     250.00000000     250.00000000     250.00000000     250.00000000     250.00000000     250.00000000     250.00000000     250.00000000     250.00000000     250.00000000     250.00000000     250.00000000     250.00000000     250.00000000     250.00000000     250.00000000     250.00000000     250.00000000     250.00000000     250.00000000     250.00000000     250.00000000
         250.00000000     250.00000000     250.00000000     250.00000000     250.00000000     250.00000000     250.00000000     250.00000000     250.00000000     250.00000000     250.00000000     250.00000000     250.00000000     250.00000000     250.00000000     250.00000000     250.00000000     250.00000000     250.00000000     250.00000000     250.00000000     250.00000000     250.00000000     250.00000000     250.00000000     250.00000000     250.00000000
         250.00000000     250.00000000     250.00000000     250.00000000     250.00000000     250.00000000     250.00000000     250.00000000     250.00000000     250.00000000     250.00000000     250.00000000     250.00000000  1.00000000E+09     250.00000000     250.00000000     250.00000000     250.00000000     250.00000000     250.00000000     250.00000000     250.00000000     250.00000000     250.00000000     250.00000000     250.00000000     250.00000000
    INTERNAL  FACTOR  1.0
         250.00000000     250.00000000     250.00000000     250.00000000     250.00000000     250.00000000     250.00000000     250.00000000     250.00000000     250.00000000     250.00000000     250.00000000     250.00000000     250.00000000     250.00000000     250.00000000     250.00000000     250.00000000     250.00000000     250.00000000     250.00000000     250.00000000     250.00000000     250.00000000     250.00000000     250.00000000     250.00000000
         250.00000000     250.00000000     250.00000000     250.00000000     250.00000000     250.00000000     250.00000000     250.00000000     250.00000000     250.00000000     250.00000000     250.00000000     250.00000000     250.00000000     250.00000000     250.00000000     250.00000000     250.00000000     250.00000000     250.00000000     250.00000000     250.00000000     250.00000000     250.00000000     250.00000000     250.00000000     250.00000000
         250.00000000     250.00000000     250.00000000     250.00000000     250.00000000     250.00000000     250.00000000     250.00000000     250.00000000     250.00000000     250.00000000     250.00000000     250.00000000     250.00000000     250.00000000     250.00000000     250.00000000     250.00000000     250.00000000     250.00000000     250.00000000     250.00000000     250.00000000     250.00000000     250.00000000     250.00000000     250.00000000
         250.00000000     250.00000000     250.00000000     250.00000000     250.00000000     250.00000000     250.00000000     250.00000000     250.00000000     250.00000000     250.00000000     250.00000000     250.00000000     250.00000000     250.00000000     250.00000000     250.00000000     250.00000000     250.00000000     250.00000000     250.00000000     250.00000000     250.00000000     250.00000000     250.00000000     250.00000000     250.00000000
         250.00000000     250.00000000     250.00000000     250.00000000     250.00000000     250.00000000     250.00000000     250.00000000     250.00000000     250.00000000     250.00000000     250.00000000     250.00000000     250.00000000     250.00000000     250.00000000     250.00000000     250.00000000     250.00000000     250.00000000     250.00000000     250.00000000     250.00000000     250.00000000     250.00000000     250.00000000     250.00000000
         250.00000000     250.00000000     250.00000000     250.00000000     250.00000000     250.00000000     250.00000000     250.00000000     250.00000000     250.00000000     250.00000000     250.00000000     250.00000000     250.00000000     250.00000000     250.00000000     250.00000000     250.00000000     250.00000000     250.00000000     250.00000000     250.00000000     250.00000000     250.00000000     250.00000000     250.00000000     250.00000000
         250.00000000     250.00000000     250.00000000     250.00000000     250.00000000     250.00000000     250.00000000     250.00000000     250.00000000     250.00000000     250.00000000     250.00000000     250.00000000     250.00000000     250.00000000     250.00000000     250.00000000     250.00000000     250.00000000     250.00000000     250.00000000     250.00000000     250.00000000     250.00000000     250.00000000     250.00000000     250.00000000
         250.00000000     250.00000000     250.00000000     250.00000000     250.00000000     250.00000000     250.00000000     250.00000000     250.00000000     250.00000000     250.00000000     250.00000000     250.00000000     250.00000000     250.00000000     250.00000000     250.00000000     250.00000000     250.00000000     250.00000000     250.00000000     250.00000000     250.00000000     250.00000000     250.00000000     250.00000000     250.00000000
         250.00000000     250.00000000     250.00000000     250.00000000     250.00000000     250.00000000     250.00000000     250.00000000     250.00000000     250.00000000     250.00000000     250.00000000     250.00000000     250.00000000     250.00000000     250.00000000     250.00000000     250.00000000     250.00000000     250.00000000     250.00000000     250.00000000     250.00000000     250.00000000     250.00000000     250.00000000     250.00000000
         250.00000000     250.00000000     250.00000000     250.00000000     250.00000000     250.00000000     250.00000000     250.00000000     250.00000000     250.00000000     250.00000000     250.00000000     250.00000000     250.00000000     250.00000000     250.00000000     250.00000000     250.00000000     250.00000000     250.00000000     250.00000000     250.00000000     250.00000000     250.00000000     250.00000000     250.00000000     250.00000000
         250.00000000     250.00000000     250.00000000     250.00000000     250.00000000     250.00000000     250.00000000     250.00000000     250.00000000     250.00000000     250.00000000     250.00000000     250.00000000     250.00000000     250.00000000     250.00000000     250.00000000     250.00000000     250.00000000     250.00000000     250.00000000     250.00000000     250.00000000     250.00000000     250.00000000     250.00000000     250.00000000
         250.00000000     250.00000000     250.00000000     250.00000000     250.00000000     250.00000000     250.00000000     250.00000000     250.00000000     250.00000000     250.00000000     250.00000000     250.00000000     250.00000000     250.00000000     250.00000000     250.00000000     250.00000000     250.00000000     250.00000000     250.00000000     250.00000000     250.00000000     250.00000000     250.00000000     250.00000000     250.00000000
         250.00000000     250.00000000     250.00000000     250.00000000     250.00000000     250.00000000     250.00000000     250.00000000     250.00000000     250.00000000     250.00000000     250.00000000     250.00000000     250.00000000     250.00000000     250.00000000     250.00000000     250.00000000     250.00000000     250.00000000     250.00000000     250.00000000     250.00000000     250.00000000     250.00000000     250.00000000     250.00000000
         250.00000000     250.00000000     250.00000000     250.00000000     250.00000000     250.00000000     250.00000000     250.00000000     250.00000000     250.00000000     250.00000000     250.00000000     250.00000000     250.00000000     250.00000000     250.00000000     250.00000000     250.00000000     250.00000000     250.00000000     250.00000000     250.00000000     250.00000000     250.00000000     250.00000000     250.00000000     250.00000000
         250.00000000     250.00000000     250.00000000     250.00000000     250.00000000     250.00000000     250.00000000     250.00000000     250.00000000     250.00000000     250.00000000     250.00000000     250.00000000     250.00000000     250.00000000     250.00000000     250.00000000     250.00000000     250.00000000     250.00000000     250.00000000     250.00000000     250.00000000     250.00000000     250.00000000     250.00000000     250.00000000
         250.00000000     250.00000000     250.00000000     250.00000000     250.00000000     250.00000000     250.00000000     250.00000000     250.00000000     250.00000000     250.00000000     250.00000000     250.00000000  1.00000000E+09     250.00000000     250.00000000     250.00000000     250.00000000     250.00000000     250.00000000     250.00000000     250.00000000     250.00000000     250.00000000     250.00000000     250.00000000     250.00000000
    INTERNAL  FACTOR  1.0
         250.00000000     250.00000000     250.00000000     250.00000000     250.00000000     250.00000000     250.00000000     250.00000000     250.00000000     250.00000000     250.00000000     250.00000000     250.00000000     250.00000000     250.00000000     250.00000000     250.00000000     250.00000000     250.00000000     250.00000000     250.00000000     250.00000000     250.00000000     250.00000000     250.00000000     250.00000000     250.00000000
         250.00000000     250.00000000     250.00000000     250.00000000     250.00000000     250.00000000     250.00000000     250.00000000     250.00000000     250.00000000     250.00000000     250.00000000     250.00000000     250.00000000     250.00000000     250.00000000     250.00000000     250.00000000     250.00000000     250.00000000     250.00000000     250.00000000     250.00000000     250.00000000     250.00000000     250.00000000     250.00000000
         250.00000000     250.00000000     250.00000000     250.00000000     250.00000000     250.00000000     250.00000000     250.00000000     250.00000000     250.00000000     250.00000000     250.00000000     250.00000000     250.00000000     250.00000000     250.00000000     250.00000000     250.00000000     250.00000000     250.00000000     250.00000000     250.00000000     250.00000000     250.00000000     250.00000000     250.00000000     250.00000000
         250.00000000     250.00000000     250.00000000     250.00000000     250.00000000     250.00000000     250.00000000     250.00000000     250.00000000     250.00000000     250.00000000     250.00000000     250.00000000     250.00000000     250.00000000     250.00000000     250.00000000     250.00000000     250.00000000     250.00000000     250.00000000     250.00000000     250.00000000     250.00000000     250.00000000     250.00000000     250.00000000
         250.00000000     250.00000000     250.00000000     250.00000000     250.00000000     250.00000000     250.00000000     250.00000000     250.00000000     250.00000000     250.00000000     250.00000000     250.00000000     250.00000000     250.00000000     250.00000000     250.00000000     250.00000000     250.00000000     250.00000000     250.00000000     250.00000000     250.00000000     250.00000000     250.00000000     250.00000000     250.00000000
         250.00000000     250.00000000     250.00000000     250.00000000     250.00000000     250.00000000     250.00000000     250.00000000     250.00000000     250.00000000     250.00000000     250.00000000     250.00000000     250.00000000     250.00000000     250.00000000     250.00000000     250.00000000     250.00000000     250.00000000     250.00000000     250.00000000     250.00000000     250.00000000     250.00000000     250.00000000     250.00000000
         250.00000000     250.00000000     250.00000000     250.00000000     250.00000000     250.00000000     250.00000000     250.00000000     250.00000000     250.00000000     250.00000000     250.00000000     250.00000000     250.00000000     250.00000000     250.00000000     250.00000000     250.00000000     250.00000000     250.00000000     250.00000000     250.00000000     250.00000000     250.00000000     250.00000000     250.00000000     250.00000000
         250.00000000     250.00000000     250.00000000     250.00000000     250.00000000     250.00000000     250.00000000     250.00000000     250.00000000     250.00000000     250.00000000     250.00000000     250.00000000     250.00000000     250.00000000     250.00000000     250.00000000     250.00000000     250.00000000     250.00000000     250.00000000     250.00000000     250.00000000     250.00000000     250.00000000     250.00000000     250.00000000
         250.00000000     250.00000000     250.00000000     250.00000000     250.00000000     250.00000000     250.00000000     250.00000000     250.00000000     250.00000000     250.00000000     250.00000000     250.00000000     250.00000000     250.00000000     250.00000000     250.00000000     250.00000000     250.00000000     250.00000000     250.00000000     250.00000000     250.00000000     250.00000000     250.00000000     250.00000000     250.00000000
         250.00000000     250.00000000     250.00000000     250.00000000     250.00000000     250.00000000     250.00000000     250.00000000     250.00000000     250.00000000     250.00000000     250.00000000     250.00000000     250.00000000     250.00000000     250.00000000     250.00000000     250.00000000     250.00000000     250.00000000     250.00000000     250.00000000     250.00000000     250.00000000     250.00000000     250.00000000     250.00000000
         250.00000000     250.00000000     250.00000000     250.00000000     250.00000000     250.00000000     250.00000000     250.00000000     250.00000000     250.00000000     250.00000000     250.00000000     250.00000000     250.00000000     250.00000000     250.00000000     250.00000000     250.00000000     250.00000000     250.00000000     250.00000000     250.00000000     250.00000000     250.00000000     250.00000000     250.00000000     250.00000000
         250.00000000     250.00000000     250.00000000     250.00000000     250.00000000     250.00000000     250.00000000     250.00000000     250.00000000     250.00000000     250.00000000     250.00000000     250.00000000     250.00000000     250.00000000     250.00000000     250.00000000     250.00000000     250.00000000     250.00000000     250.00000000     250.00000000     250.00000000     250.00000000     250.00000000     250.00000000     250.00000000
         250.00000000     250.00000000     250.00000000     250.00000000     250.00000000     250.00000000     250.00000000     250.00000000     250.00000000     250.00000000     250.00000000     250.00000000     250.00000000     250.00000000     250.00000000     250.00000000     250.00000000     250.00000000     250.00000000     250.00000000     250.00000000     250.00000000     250.00000000     250.00000000     250.00000000     250.00000000     250.00000000
         250.00000000     250.00000000     250.00000000     250.00000000     250.00000000     250.00000000     250.00000000     250.00000000     250.00000000     250.00000000     250.00000000     250.00000000     250.00000000     250.00000000     250.00000000     250.00000000     250.00000000     250.00000000     250.00000000     250.00000000     250.00000000     250.00000000     250.00000000     250.00000000     250.00000000     250.00000000     250.00000000