# File generated by Flopy version 3.3.6 on 12/07/2022 at 20:40:45.
BEGIN griddata
  strt
    CONSTANT     600.00000000
END griddata

