# File generated by Flopy version 3.3.6 on 12/07/2022 at 20:41:09.
BEGIN options
END options

BEGIN sources
  CHD-1  AUX  CONCENTRATION
END sources

