# File generated by Flopy version 3.3.6 on 04/19/2023 at 16:16:33.
BEGIN options
END options

BEGIN packages
  DIS6  example_3.dis  dis
  IC6  example_3.ic  ic
  NPF6  example_3.npf  npf
  CHD6  example_3.chd  chd_0
  WEL6  example_3.wel  wel_0
  RCH6  example_3.rcha  rcha_0
  OC6  example_3.oc  oc
END packages

