# File generated by Flopy version 3.3.6 on 04/19/2023 at 16:16:33.
BEGIN options
END options

BEGIN dimensions
  MAXBOUND  1
END dimensions

BEGIN period  1
  1 6 6       0.00000000
END period  1

BEGIN period  2
  1 6 6  -1.00000000E+09
END period  2

BEGIN period  3
  1 6 6  -2.00000000E+09
END period  3

