# File generated by Flopy version 3.3.6 on 04/19/2023 at 16:16:33.
BEGIN options
  READASARRAYS
END options

BEGIN period  1
  recharge
    CONSTANT       0.00100000
END period  1

