# File generated by Flopy version 3.3.6 on 12/07/2022 at 20:40:07.
BEGIN options
  DIGITS  10
  PRINT_INPUT
END options

BEGIN continuous  FILEOUT  ex-gwf-drn-p01.surfrate.obs.csv
  surfrate  uzf-gwd-to-mvr  surfrate
  netinfil  net-infiltration  surfrate
END continuous  FILEOUT  ex-gwf-drn-p01.surfrate.obs.csv

