# File generated by Flopy version 3.3.6 on 12/07/2022 at 20:41:07.
BEGIN options
  DIGITS  10
  PRINT_INPUT
END options

BEGIN continuous  FILEOUT  trans.obs.csv
  myobs  CONCENTRATION  1 1 82
END continuous  FILEOUT  trans.obs.csv

