# File generated by Flopy version 3.3.6 on 12/07/2022 at 20:41:07.
BEGIN options
  TIME_UNITS  days
END options

BEGIN dimensions
  NPER  2
END dimensions

BEGIN perioddata
    1000.00000000  10       1.00000000
    9000.00000000  90       1.00000000
END perioddata

