# File generated by Flopy version 3.3.6 on 12/07/2022 at 20:40:09.
BEGIN options
END options

BEGIN continuous  FILEOUT  ex-gwf-lak-p01.gwf.obs.csv
  A  head  1 4 4
  B  head  1 14 14
END continuous  FILEOUT  ex-gwf-lak-p01.gwf.obs.csv

