# File generated by Flopy version 3.3.6 on 12/07/2022 at 20:40:09.
BEGIN options
  DIGITS  10
  PRINT_INPUT
END options

BEGIN continuous  FILEOUT  ex-gwf-lak-p01.lak.obs.csv
  stage  stage  1
END continuous  FILEOUT  ex-gwf-lak-p01.lak.obs.csv

