# File generated by Flopy version 3.3.6 on 04/12/2023 at 16:35:31.
BEGIN options
  BUDGET  FILEOUT  tutorial01_mf6.cbb
  HEAD  FILEOUT  tutorial01_mf6.hds
END options

BEGIN period  1
  SAVE  HEAD  ALL
  SAVE  BUDGET  ALL
  PRINT  HEAD  LAST
END period  1

