# File generated by Flopy version 3.3.6 on 04/16/2023 at 18:57:17.
BEGIN options
  COMPLEXITY  simple
END options

