# File generated by Flopy version 3.3.6 on 04/12/2023 at 16:35:29.
BEGIN options
  COMPLEXITY  simple
END options

