# File generated by Flopy version 3.3.6 on 12/07/2022 at 20:40:37.
BEGIN options
  SAVE_FLOWS
END options

BEGIN packages
  DIS6  gwf-outer.dis  dis
  IC6  gwf-outer.ic  ic
  NPF6  gwf-outer.npf  npf
  STO6  gwf-outer.sto  sto
  CHD6  gwf-outer.chd  chd-1
  RCH6  gwf-outer.rch  rch-1
  OC6  gwf-outer.oc  oc
END packages

