# File generated by Flopy version 3.3.6 on 12/07/2022 at 20:40:38.
BEGIN options
  PRINT_FLOWS
END options

BEGIN sources
END sources

