# File generated by Flopy version 3.3.6 on 12/07/2022 at 20:40:40.
BEGIN options
  TIME_UNITS  seconds
END options

BEGIN dimensions
  NPER  1
END dimensions

BEGIN perioddata
  1.29600000E+07  25       1.30000000
END perioddata

