# File generated by Flopy version 3.3.6 on 12/07/2022 at 20:40:40.
BEGIN options
  BUDGET  FILEOUT  gwt-hecht-mendez.cbc
  CONCENTRATION  FILEOUT  gwt-hecht-mendez.ucn
  CONCENTRATION  PRINT_FORMAT  COLUMNS  10  WIDTH  15  DIGITS  6  GENERAL
END options

BEGIN period  1
  SAVE  CONCENTRATION  LAST
  SAVE  CONCENTRATION  STEPS  15
  SAVE  BUDGET  LAST
  PRINT  CONCENTRATION  LAST
  PRINT  BUDGET  LAST
END period  1

