# File generated by Flopy version 3.3.6 on 12/07/2022 at 20:42:44.
BEGIN options
END options

BEGIN timing
  TDIS6  ex-gwf-u1gwfgwf-s1.tdis
END timing

BEGIN models
  gwf6  outer.nam  outer
  gwf6  inner.nam  inner
END models

BEGIN exchanges
  GWF6-GWF6  ex-gwf-u1gwfgwf-s1.gwfgwf  outer  inner
END exchanges

BEGIN solutiongroup  1
  ims6  ex-gwf-u1gwfgwf-s1.ims  outer  inner
END solutiongroup  1

