# File generated by Flopy version 3.3.6 on 12/07/2022 at 20:42:44.
BEGIN options
  SAVE_FLOWS
END options

BEGIN packages
  DIS6  outer.dis  dis
  NPF6  outer.npf  npf
  IC6  outer.ic  ic
  CHD6  outer.left.chd  chd-left
  CHD6  outer.right.chd  chd-right
  OC6  outer.oc  oc
END packages

