# File generated by Flopy version 3.3.6 on 12/07/2022 at 20:42:44.
BEGIN options
END options

BEGIN dimensions
  MAXBOUND  7
END dimensions

BEGIN period  1
  1 1 1       1.00000000
  1 2 1       1.00000000
  1 3 1       1.00000000
  1 4 1       1.00000000
  1 5 1       1.00000000
  1 6 1       1.00000000
  1 7 1       1.00000000
END period  1

