# File generated by Flopy version 3.3.6 on 12/07/2022 at 20:41:03.
BEGIN options
  TIME_UNITS  seconds
END options

BEGIN dimensions
  NPER  2
END dimensions

BEGIN perioddata
  3.15360000E+07  365       1.00000000
  3.15360000E+07  365       1.00000000
END perioddata

