# File generated by Flopy version 3.3.6 on 12/07/2022 at 20:41:03.
BEGIN options
  auxiliary  CONCENTRATION
  PRINT_INPUT
  PRINT_FLOWS
END options

BEGIN dimensions
  MAXBOUND  2
END dimensions

BEGIN period  1
  1 4 7       0.00100000      57.87000000
  1 11 7      -0.01890000       0.00000000
END period  1

BEGIN period  2
  1 4 7       0.00100000       0.00000000
  1 11 7      -0.01890000       0.00000000
END period  2

