# File generated by Flopy version 3.3.6 on 12/07/2022 at 20:41:03.
BEGIN options
  SCHEME  tvd
END options

