# File generated by Flopy version 3.3.6 on 12/07/2022 at 20:41:03.
BEGIN options
  PRINT_FLOWS
END options

BEGIN sources
  WEL-1  AUX  CONCENTRATION
  CHD-1  AUX  CONCENTRATION
END sources

