# File generated by Flopy version 3.3.6 on 12/07/2022 at 20:41:03.
BEGIN options
END options

BEGIN timing
  TDIS6  ex-gwt-mt3dms-p09.tdis
END timing

BEGIN models
  gwf6  gwf-p09-mf6.nam  gwf-p09-mf6
  gwt6  gwt-p09-mf6.nam  gwt-p09-mf6
END models

BEGIN exchanges
  GWF6-GWT6  p09-mf6.gwfgwt  gwf-p09-mf6  gwt-p09-mf6
END exchanges

BEGIN solutiongroup  1
  ims6  gwf-p09-mf6.ims  gwf-p09-mf6
  ims6  gwt-p09-mf6.ims  gwt-p09-mf6
END solutiongroup  1

