# File generated by Flopy version 3.3.6 on 12/07/2022 at 20:40:35.
BEGIN griddata
  strt
    CONSTANT       0.00000000
END griddata

