# File generated by Flopy version 3.3.6 on 12/07/2022 at 20:40:35.
BEGIN options
END options

BEGIN timing
  TDIS6  ex-gwf-whirl.tdis
END timing

BEGIN models
  gwf6  ex-gwf-whirl.nam  ex-gwf-whirl
END models

BEGIN exchanges
END exchanges

BEGIN solutiongroup  1
  ims6  ex-gwf-whirl.ims  ex-gwf-whirl
END solutiongroup  1

