# File generated by Flopy version 3.3.6 on 12/07/2022 at 20:40:08.
BEGIN options
  DIGITS  10
  PRINT_INPUT
END options

BEGIN continuous  FILEOUT  gwf_obs.csv
  h1_1_2  HEAD  1 1 2
END continuous  FILEOUT  gwf_obs.csv

