# File generated by Flopy version 3.3.6 on 12/07/2022 at 20:40:45.
BEGIN options
  TIME_UNITS  days
END options

BEGIN dimensions
  NPER  2
END dimensions

BEGIN perioddata
     730.00000000  73       1.00000000
   29270.00000000  2927       1.00000000
END perioddata

