# File generated by Flopy version 3.3.6 on 12/07/2022 at 20:41:02.
BEGIN options
  SAVE_SPECIFIC_DISCHARGE
END options

BEGIN griddata
  icelltype  LAYERED
    CONSTANT  1
    CONSTANT  1
    CONSTANT  1
    CONSTANT  1
    CONSTANT  1
    CONSTANT  1
    CONSTANT  0
    CONSTANT  0
    CONSTANT  0
    CONSTANT  0
    CONSTANT  0
    CONSTANT  0
    CONSTANT  0
    CONSTANT  0
    CONSTANT  0
    CONSTANT  0
    CONSTANT  0
    CONSTANT  0
    CONSTANT  0
    CONSTANT  0
    CONSTANT  0
    CONSTANT  0
    CONSTANT  0
    CONSTANT  0
    CONSTANT  0
    CONSTANT  0
    CONSTANT  0
  k  LAYERED
    INTERNAL  FACTOR  1.0
           0.43200000       0.43200000       0.43200000       0.43200000       0.43200000       0.43200000       0.43200000       0.43200000       0.43200000       0.43200000       0.43200000       0.43200000       0.43200000       0.43200000       0.43200000       0.43200000       0.43200000       0.43200000       0.43200000       0.43200000       0.43200000       0.43200000       0.43200000       0.43200000       0.43200000       0.43200000       0.43200000       0.43200000       0.43200000       0.43200000       0.43200000       0.43200000       0.43200000       0.43200000       0.43200000       0.43200000       0.43200000       0.43200000       0.43200000       0.43200000       0.43200000       0.43200000       0.43200000       0.43200000       0.43200000       0.43200000       0.43200000       0.43200000       0.43200000       0.43200000
    INTERNAL  FACTOR  1.0
           0.43200000       0.43200000       0.43200000       0.43200000       0.43200000       0.43200000       0.43200000       0.43200000       0.43200000       0.43200000       0.43200000       0.43200000       0.43200000       0.43200000       0.43200000       0.43200000       0.43200000       0.43200000       0.43200000       0.43200000       0.43200000       0.43200000       0.43200000       0.43200000       0.43200000       0.43200000       0.43200000       0.43200000       0.43200000       0.43200000       0.43200000       0.43200000       0.43200000       0.43200000       0.43200000       0.43200000       0.43200000       0.43200000       0.43200000       0.43200000       0.43200000       0.43200000       0.43200000       0.43200000       0.43200000       0.43200000       0.43200000       0.43200000       0.43200000       0.43200000
    INTERNAL  FACTOR  1.0
           0.43200000       0.43200000       0.43200000       0.43200000       0.43200000       0.43200000       0.43200000       0.43200000       0.43200000       0.43200000       0.43200000       0.43200000       0.43200000       0.43200000       0.43200000       0.43200000       0.43200000       0.43200000       0.43200000       0.43200000       0.43200000       0.43200000       0.43200000       0.43200000       0.43200000       0.43200000       0.43200000       0.43200000       0.43200000       0.43200000       0.43200000       0.43200000       0.43200000       0.43200000       0.43200000       0.43200000       0.43200000       0.43200000       0.43200000       0.43200000       0.43200000       0.43200000       0.43200000       0.43200000       0.43200000       0.43200000       0.43200000       0.43200000       0.43200000       0.43200000
    INTERNAL  FACTOR  1.0
           0.43200000       0.43200000       0.43200000       0.43200000       0.43200000       0.43200000       0.43200000       0.43200000       0.43200000       0.43200000       0.43200000       0.43200000       0.43200000       0.43200000       0.43200000       0.43200000       0.43200000       0.43200000       0.43200000       0.43200000       0.43200000       0.43200000       0.43200000       0.43200000       0.43200000       0.43200000       0.43200000       0.43200000       0.43200000       0.43200000       0.43200000       0.43200000       0.43200000       0.43200000       0.43200000       0.43200000       0.43200000       0.43200000       0.43200000       0.43200000       0.43200000       0.43200000       0.43200000       0.43200000       0.43200000       0.43200000       0.43200000       0.43200000       0.43200000       0.43200000
    INTERNAL  FACTOR  1.0
           0.43200000       0.43200000       0.43200000       0.43200000       0.43200000       0.43200000       0.43200000       0.43200000       0.43200000       0.43200000       0.43200000       0.43200000       0.43200000       0.43200000       0.43200000       0.43200000       0.43200000       0.43200000       0.43200000       0.43200000       0.43200000       0.43200000       0.43200000       0.43200000       0.43200000       0.43200000       0.43200000       0.43200000       0.43200000       0.43200000       0.43200000       0.43200000       0.43200000       0.43200000       0.43200000       0.43200000       0.43200000       0.43200000       0.43200000       0.43200000       0.43200000       0.43200000       0.43200000       0.43200000       0.43200000       0.43200000       0.43200000       0.43200000       0.43200000       0.43200000
    INTERNAL  FACTOR  1.0
           0.43200000       0.43200000       0.43200000       0.43200000       0.43200000       0.43200000       0.43200000       0.43200000       0.43200000       0.43200000       0.43200000       0.43200000       0.43200000       0.43200000       0.43200000       0.43200000       0.43200000       0.43200000       0.43200000       0.43200000       0.43200000       0.43200000       0.43200000       0.43200000       0.43200000       0.43200000       0.43200000       0.43200000       0.43200000       0.43200000       0.43200000       0.43200000       0.43200000       0.43200000       0.43200000       0.43200000       0.43200000       0.43200000       0.43200000       0.43200000       0.43200000       0.43200000       0.43200000       0.43200000       0.43200000       0.43200000       0.43200000       0.43200000       0.43200000       0.43200000
    INTERNAL  FACTOR  1.0
           0.43200000       0.43200000       0.43200000       0.43200000       0.43200000       0.43200000       0.43200000       0.43200000       0.43200000       0.43200000       0.43200000       0.43200000       0.43200000       0.43200000       0.43200000       0.43200000       0.43200000       0.43200000       0.43200000       0.43200000       0.43200000       0.43200000       0.43200000       0.43200000       0.43200000       0.43200000       0.43200000       0.43200000       0.43200000       0.43200000       0.43200000       0.43200000       0.43200000       0.43200000       0.43200000       0.43200000       0.43200000       0.43200000       0.43200000       0.43200000       0.43200000       0.43200000       0.43200000       0.43200000       0.43200000       0.43200000       0.43200000       0.43200000       0.43200000       0.43200000
    INTERNAL  FACTOR  1.0
           0.43200000       0.43200000       0.43200000       0.43200000       0.43200000       0.43200000       0.43200000       0.43200000       0.43200000       0.43200000       0.43200000       0.43200000       0.43200000       0.43200000       0.43200000       0.43200000       0.43200000       0.43200000       0.43200000       0.43200000       0.43200000       0.43200000       0.43200000       0.43200000       0.43200000       0.43200000       0.43200000       0.43200000       0.43200000       0.43200000       0.43200000       0.43200000       0.43200000       0.43200000       0.43200000       0.43200000       0.43200000       0.43200000       0.43200000       0.43200000       0.43200000       0.43200000       0.43200000       0.43200000       0.43200000       0.43200000       0.43200000       0.43200000       0.43200000       0.43200000
    INTERNAL  FACTOR  1.0
           0.43200000       0.43200000       0.43200000       0.43200000       0.43200000       0.43200000       0.43200000       0.43200000       0.43200000       0.43200000       0.43200000       0.43200000       0.43200000       0.43200000       0.43200000       0.43200000       0.43200000       0.43200000       0.43200000       0.43200000       0.43200000       0.43200000       0.43200000       0.43200000       0.43200000       0.43200000       0.43200000       0.43200000       0.43200000       0.43200000       0.43200000       0.43200000       0.43200000       0.43200000       0.43200000       0.43200000       0.43200000       0.43200000       0.43200000       0.43200000       0.43200000       0.43200000       0.43200000       0.43200000       0.43200000       0.43200000       0.43200000       0.43200000       0.43200000       0.43200000
    INTERNAL  FACTOR  1.0
           0.43200000       0.43200000       0.43200000       0.43200000       0.43200000       0.43200000       0.43200000       0.43200000       0.43200000       0.43200000       0.43200000       0.43200000       0.43200000       0.43200000       0.43200000       0.43200000       0.43200000       0.43200000       0.43200000       0.43200000       0.43200000       0.43200000       0.43200000       0.43200000       0.43200000       0.43200000       0.43200000       0.43200000       0.43200000       0.43200000       0.43200000       0.43200000       0.43200000       0.43200000       0.43200000       0.43200000       0.43200000       0.43200000       0.43200000       0.43200000       0.43200000       0.43200000       0.43200000       0.43200000       0.43200000       0.43200000       0.43200000       0.43200000       0.43200000       0.43200000
    INTERNAL  FACTOR  1.0
           0.43200000       0.43200000       0.43200000       0.43200000       0.43200000       0.43200000       0.43200000       0.43200000       0.43200000       0.43200000       0.43200000       0.43200000       0.43200000       0.43200000       0.43200000       0.43200000       0.43200000       0.43200000       0.43200000       0.43200000       0.43200000       0.43200000       0.43200000       0.43200000       0.43200000       0.43200000       0.43200000       0.43200000       0.43200000       0.43200000       0.43200000       0.43200000       0.43200000       0.43200000       0.43200000       0.43200000       0.43200000       0.43200000       0.43200000       0.43200000       0.43200000       0.43200000       0.43200000       0.43200000       0.43200000       0.43200000       0.43200000       0.43200000       0.43200000       0.43200000
    INTERNAL  FACTOR  1.0
           8.64000000       8.64000000       8.64000000       8.64000000       8.64000000       8.64000000       8.64000000       8.64000000       8.64000000       8.64000000       8.64000000       8.64000000       8.64000000       8.64000000       8.64000000       8.64000000       8.64000000       8.64000000       8.64000000       8.64000000       8.64000000       8.64000000       8.64000000       8.64000000       0.43200000       0.43200000       0.43200000       0.43200000       0.43200000       0.43200000       0.43200000       0.43200000       0.43200000       0.43200000       0.43200000       0.43200000       8.64000000       8.64000000       8.64000000       8.64000000       8.64000000       8.64000000       8.64000000       8.64000000       8.64000000       8.64000000       8.64000000       8.64000000       8.64000000       8.64000000
    INTERNAL  FACTOR  1.0
           8.64000000       8.64000000       8.64000000       8.64000000       8.64000000       8.64000000       8.64000000       8.64000000       8.64000000       8.64000000       8.64000000       8.64000000       8.64000000       8.64000000       8.64000000       8.64000000       8.64000000       8.64000000       8.64000000       8.64000000       8.64000000       8.64000000       8.64000000       8.64000000       0.43200000       0.43200000       0.43200000       0.43200000       0.43200000       0.43200000       0.43200000       0.43200000       0.43200000       0.43200000       0.43200000       0.43200000       8.64000000       8.64000000       8.64000000       8.64000000       8.64000000       8.64000000       8.64000000       8.64000000       8.64000000       8.64000000       8.64000000       8.64000000       8.64000000       8.64000000
    INTERNAL  FACTOR  1.0
           8.64000000       8.64000000       8.64000000       8.64000000       8.64000000       8.64000000       8.64000000       8.64000000       8.64000000       8.64000000       8.64000000       8.64000000       8.64000000       8.64000000       8.64000000       8.64000000       8.64000000       8.64000000       8.64000000       8.64000000       8.64000000       8.64000000       8.64000000       8.64000000       0.43200000       0.43200000       0.43200000       0.43200000       0.43200000       0.43200000       0.43200000       0.43200000       0.43200000       0.43200000       0.43200000       0.43200000       8.64000000       8.64000000       8.64000000       8.64000000       8.64000000       8.64000000       8.64000000       8.64000000       8.64000000       8.64000000       8.64000000       8.64000000       8.64000000       8.64000000
    INTERNAL  FACTOR  1.0
           8.64000000       8.64000000       8.64000000       8.64000000       8.64000000       8.64000000       8.64000000       8.64000000       8.64000000       8.64000000       8.64000000       8.64000000       8.64000000       8.64000000       8.64000000       8.64000000       8.64000000       8.64000000       8.64000000       8.64000000       8.64000000       8.64000000       8.64000000       8.64000000       0.43200000       0.43200000       0.43200000       0.43200000       0.43200000       0.43200000       0.43200000       0.43200000       0.43200000       0.43200000       0.43200000       0.43200000       8.64000000       8.64000000       8.64000000       8.64000000       8.64000000       8.64000000       8.64000000       8.64000000       8.64000000       8.64000000       8.64000000       8.64000000       8.64000000       8.64000000
    INTERNAL  FACTOR  1.0
           8.64000000       8.64000000       8.64000000       8.64000000       8.64000000       8.64000000       8.64000000       8.64000000       8.64000000       8.64000000       8.64000000       8.64000000       8.64000000       8.64000000       8.64000000       8.64000000       8.64000000       8.64000000       8.64000000       8.64000000       8.64000000       8.64000000       8.64000000       8.64000000       0.43200000       0.43200000       0.43200000       0.43200000       0.43200000       0.43200000       0.43200000       0.43200000       0.43200000       0.43200000       0.43200000       0.43200000       8.64000000       8.64000000       8.64000000       8.64000000       8.64000000       8.64000000       8.64000000       8.64000000       8.64000000       8.64000000       8.64000000       8.64000000       8.64000000       8.64000000
    INTERNAL  FACTOR  1.0
           8.64000000       8.64000000       8.64000000       8.64000000       8.64000000       8.64000000       8.64000000       8.64000000       8.64000000       8.64000000       8.64000000       8.64000000       8.64000000       8.64000000       8.64000000       8.64000000       8.64000000       8.64000000       8.64000000       8.64000000       8.64000000       8.64000000       8.64000000       8.64000000       0.43200000       0.43200000       0.43200000       0.43200000       0.43200000       0.43200000       0.43200000       0.43200000       0.43200000       0.43200000       0.43200000       0.43200000       8.64000000       8.64000000       8.64000000       8.64000000       8.64000000       8.64000000       8.64000000       8.64000000       8.64000000       8.64000000       8.64000000       8.64000000       8.64000000       8.64000000
    INTERNAL  FACTOR  1.0
           8.64000000       8.64000000       8.64000000       8.64000000       8.64000000       8.64000000       8.64000000       8.64000000       8.64000000       8.64000000       8.64000000       8.64000000       8.64000000       8.64000000       8.64000000       8.64000000       8.64000000       8.64000000       8.64000000       8.64000000       8.64000000       8.64000000       8.64000000       8.64000000       0.43200000       0.43200000       0.43200000       0.43200000       0.43200000       0.43200000       0.43200000       0.43200000       0.43200000       0.43200000       0.43200000       0.43200000       8.64000000       8.64000000       8.64000000       8.64000000       8.64000000       8.64000000       8.64000000       8.64000000       8.64000000       8.64000000       8.64000000       8.64000000       8.64000000       8.64000000
    INTERNAL  FACTOR  1.0
           8.64000000       8.64000000       8.64000000       8.64000000       8.64000000       8.64000000       8.64000000       8.64000000       8.64000000       8.64000000       8.64000000       8.64000000       8.64000000       8.64000000       8.64000000       8.64000000       8.64000000       8.64000000       8.64000000       8.64000000       8.64000000       8.64000000       8.64000000       8.64000000       0.43200000       0.43200000       0.43200000       0.43200000       0.43200000       0.43200000       0.43200000       0.43200000       0.43200000       0.43200000       0.43200000       0.43200000       8.64000000       8.64000000       8.64000000       8.64000000       8.64000000       8.64000000       8.64000000       8.64000000       8.64000000       8.64000000       8.64000000       8.64000000       8.64000000       8.64000000
    INTERNAL  FACTOR  1.0
           0.43200000       0.43200000       0.43200000       0.43200000       0.43200000       0.43200000       0.43200000       0.43200000       0.43200000       0.43200000       0.43200000       0.43200000       0.43200000       0.43200000       0.43200000       0.43200000       0.43200000       0.43200000       0.43200000       0.43200000       0.43200000       0.43200000       0.43200000       0.43200000       0.43200000       0.43200000       0.43200000       0.43200000       0.43200000       0.43200000       0.43200000       0.43200000       0.43200000       0.43200000       0.43200000       0.43200000       0.43200000       0.43200000       0.43200000       0.43200000       0.43200000       0.43200000       0.43200000       0.43200000       0.43200000       0.43200000       0.43200000       0.43200000       0.43200000       0.43200000
    INTERNAL  FACTOR  1.0
           0.43200000       0.43200000       0.43200000       0.43200000       0.43200000       0.43200000       0.43200000       0.43200000       0.43200000       0.43200000       0.43200000       0.43200000       0.43200000       0.43200000       0.43200000       0.43200000       0.43200000       0.43200000       0.43200000       0.43200000       0.43200000       0.43200000       0.43200000       0.43200000       0.43200000       0.43200000       0.43200000       0.43200000       0.43200000       0.43200000       0.43200000       0.43200000       0.43200000       0.43200000       0.43200000       0.43200000       0.43200000       0.43200000       0.43200000       0.43200000       0.43200000       0.43200000       0.43200000       0.43200000       0.43200000       0.43200000       0.43200000       0.43200000       0.43200000       0.43200000
    INTERNAL  FACTOR  1.0
           0.43200000       0.43200000       0.43200000       0.43200000       0.43200000       0.43200000       0.43200000       0.43200000       0.43200000       0.43200000       0.43200000       0.43200000       0.43200000       0.43200000       0.43200000       0.43200000       0.43200000       0.43200000       0.43200000       0.43200000       0.43200000       0.43200000       0.43200000       0.43200000       0.43200000       0.43200000       0.43200000       0.43200000       0.43200000       0.43200000       0.43200000       0.43200000       0.43200000       0.43200000       0.43200000       0.43200000       0.43200000       0.43200000       0.43200000       0.43200000       0.43200000       0.43200000       0.43200000       0.43200000       0.43200000       0.43200000       0.43200000       0.43200000       0.43200000       0.43200000
    INTERNAL  FACTOR  1.0
           0.43200000       0.43200000       0.43200000       0.43200000       0.43200000       0.43200000       0.43200000       0.43200000       0.43200000       0.43200000       0.43200000       0.43200000       0.43200000       0.43200000       0.43200000       0.43200000       0.43200000       0.43200000       0.43200000       0.43200000       0.43200000       0.43200000       0.43200000       0.43200000       0.43200000       0.43200000       0.43200000       0.43200000       0.43200000       0.43200000       0.43200000       0.43200000       0.43200000       0.43200000       0.43200000       0.43200000       0.43200000       0.43200000       0.43200000       0.43200000       0.43200000       0.43200000       0.43200000       0.43200000       0.43200000       0.43200000       0.43200000       0.43200000       0.43200000       0.43200000
    INTERNAL  FACTOR  1.0
           0.43200000       0.43200000       0.43200000       0.43200000       0.43200000       0.43200000       0.43200000       0.43200000       0.43200000       0.43200000       0.43200000       0.43200000       0.43200000       0.43200000       0.43200000       0.43200000       0.43200000       0.43200000       0.43200000       0.43200000       0.43200000       0.43200000       0.43200000       0.43200000       0.43200000       0.43200000       0.43200000       0.43200000       0.43200000       0.43200000       0.43200000       0.43200000       0.43200000       0.43200000       0.43200000       0.43200000       0.43200000       0.43200000       0.43200000       0.43200000       0.43200000       0.43200000       0.43200000       0.43200000       0.43200000       0.43200000       0.43200000       0.43200000       0.43200000       0.43200000
    INTERNAL  FACTOR  1.0
           0.43200000       0.43200000       0.43200000       0.43200000       0.43200000       0.43200000       0.43200000       0.43200000       0.43200000       0.43200000       0.43200000       0.43200000       0.43200000       0.43200000       0.43200000       0.43200000       0.43200000       0.43200000       0.43200000       0.43200000       0.43200000       0.43200000       0.43200000       0.43200000       0.43200000       0.43200000       0.43200000       0.43200000       0.43200000       0.43200000       0.43200000       0.43200000       0.43200000       0.43200000       0.43200000       0.43200000       0.43200000       0.43200000       0.43200000       0.43200000       0.43200000       0.43200000       0.43200000       0.43200000       0.43200000       0.43200000       0.43200000       0.43200000       0.43200000       0.43200000
    INTERNAL  FACTOR  1.0
           0.43200000       0.43200000       0.43200000       0.43200000       0.43200000       0.43200000       0.43200000       0.43200000       0.43200000       0.43200000       0.43200000       0.43200000       0.43200000       0.43200000       0.43200000       0.43200000       0.43200000       0.43200000       0.43200000       0.43200000       0.43200000       0.43200000       0.43200000       0.43200000       0.43200000       0.43200000       0.43200000       0.43200000       0.43200000       0.43200000       0.43200000       0.43200000       0.43200000       0.43200000       0.43200000       0.43200000       0.43200000       0.43200000       0.43200000       0.43200000       0.43200000       0.43200000       0.43200000       0.43200000       0.43200000       0.43200000       0.43200000       0.43200000       0.43200000       0.43200000
    INTERNAL  FACTOR  1.0
           0.43200000       0.43200000       0.43200000       0.43200000       0.43200000       0.43200000       0.43200000       0.43200000       0.43200000       0.43200000       0.43200000       0.43200000       0.43200000       0.43200000       0.43200000       0.43200000       0.43200000       0.43200000       0.43200000       0.43200000       0.43200000       0.43200000       0.43200000       0.43200000       0.43200000       0.43200000       0.43200000       0.43200000       0.43200000       0.43200000       0.43200000       0.43200000       0.43200000       0.43200000       0.43200000       0.43200000       0.43200000       0.43200000       0.43200000       0.43200000       0.43200000       0.43200000       0.43200000       0.43200000       0.43200000       0.43200000       0.43200000       0.43200000       0.43200000       0.43200000
  k33  LAYERED
    INTERNAL  FACTOR  1.0
           0.43200000       0.43200000       0.43200000       0.43200000       0.43200000       0.43200000       0.43200000       0.43200000       0.43200000       0.43200000       0.43200000       0.43200000       0.43200000       0.43200000       0.43200000       0.43200000       0.43200000       0.43200000       0.43200000       0.43200000       0.43200000       0.43200000       0.43200000       0.43200000       0.43200000       0.43200000       0.43200000       0.43200000       0.43200000       0.43200000       0.43200000       0.43200000       0.43200000       0.43200000       0.43200000       0.43200000       0.43200000       0.43200000       0.43200000       0.43200000       0.43200000       0.43200000       0.43200000       0.43200000       0.43200000       0.43200000       0.43200000       0.43200000       0.43200000       0.43200000
    INTERNAL  FACTOR  1.0
           0.43200000       0.43200000       0.43200000       0.43200000       0.43200000       0.43200000       0.43200000       0.43200000       0.43200000       0.43200000       0.43200000       0.43200000       0.43200000       0.43200000       0.43200000       0.43200000       0.43200000       0.43200000       0.43200000       0.43200000       0.43200000       0.43200000       0.43200000       0.43200000       0.43200000       0.43200000       0.43200000       0.43200000       0.43200000       0.43200000       0.43200000       0.43200000       0.43200000       0.43200000       0.43200000       0.43200000       0.43200000       0.43200000       0.43200000       0.43200000       0.43200000       0.43200000       0.43200000       0.43200000       0.43200000       0.43200000       0.43200000       0.43200000       0.43200000       0.43200000
    INTERNAL  FACTOR  1.0
           0.43200000       0.43200000       0.43200000       0.43200000       0.43200000       0.43200000       0.43200000       0.43200000       0.43200000       0.43200000       0.43200000       0.43200000       0.43200000       0.43200000       0.43200000       0.43200000       0.43200000       0.43200000       0.43200000       0.43200000       0.43200000       0.43200000       0.43200000       0.43200000       0.43200000       0.43200000       0.43200000       0.43200000       0.43200000       0.43200000       0.43200000       0.43200000       0.43200000       0.43200000       0.43200000       0.43200000       0.43200000       0.43200000       0.43200000       0.43200000       0.43200000       0.43200000       0.43200000       0.43200000       0.43200000       0.43200000       0.43200000       0.43200000       0.43200000       0.43200000
    INTERNAL  FACTOR  1.0
           0.43200000       0.43200000       0.43200000       0.43200000       0.43200000       0.43200000       0.43200000       0.43200000       0.43200000       0.43200000       0.43200000       0.43200000       0.43200000       0.43200000       0.43200000       0.43200000       0.43200000       0.43200000       0.43200000       0.43200000       0.43200000       0.43200000       0.43200000       0.43200000       0.43200000       0.43200000       0.43200000       0.43200000       0.43200000       0.43200000       0.43200000       0.43200000       0.43200000       0.43200000       0.43200000       0.43200000       0.43200000       0.43200000       0.43200000       0.43200000       0.43200000       0.43200000       0.43200000       0.43200000       0.43200000       0.43200000       0.43200000       0.43200000       0.43200000       0.43200000
    INTERNAL  FACTOR  1.0
           0.43200000       0.43200000       0.43200000       0.43200000       0.43200000       0.43200000       0.43200000       0.43200000       0.43200000       0.43200000       0.43200000       0.43200000       0.43200000       0.43200000       0.43200000       0.43200000       0.43200000       0.43200000       0.43200000       0.43200000       0.43200000       0.43200000       0.43200000       0.43200000       0.43200000       0.43200000       0.43200000       0.43200000       0.43200000       0.43200000       0.43200000       0.43200000       0.43200000       0.43200000       0.43200000       0.43200000       0.43200000       0.43200000       0.43200000       0.43200000       0.43200000       0.43200000       0.43200000       0.43200000       0.43200000       0.43200000       0.43200000       0.43200000       0.43200000       0.43200000
    INTERNAL  FACTOR  1.0
           0.43200000       0.43200000       0.43200000       0.43200000       0.43200000       0.43200000       0.43200000       0.43200000       0.43200000       0.43200000       0.43200000       0.43200000       0.43200000       0.43200000       0.43200000       0.43200000       0.43200000       0.43200000       0.43200000       0.43200000       0.43200000       0.43200000       0.43200000       0.43200000       0.43200000       0.43200000       0.43200000       0.43200000       0.43200000       0.43200000       0.43200000       0.43200000       0.43200000       0.43200000       0.43200000       0.43200000       0.43200000       0.43200000       0.43200000       0.43200000       0.43200000       0.43200000       0.43200000       0.43200000       0.43200000       0.43200000       0.43200000       0.43200000       0.43200000       0.43200000
    INTERNAL  FACTOR  1.0