# File generated by Flopy version 3.3.6 on 12/07/2022 at 20:41:02.
BEGIN options
  SAVE_FLOWS
END options

BEGIN packages
  DIS6  gwf_p08_mf6.dis  dis
  NPF6  gwf_p08_mf6.npf  npf
  STO6  gwf_p08_mf6.sto  sto
  IC6  gwf_p08_mf6.ic  ic
  CHD6  gwf_p08_mf6.chd  chd-1
  RCH6  gwf_p08_mf6.rch  rch-1
  OC6  gwf_p08_mf6.oc  oc
END packages

