# File generated by Flopy version 3.3.6 on 12/07/2022 at 20:41:02.
BEGIN options
END options

BEGIN griddata
  alh
    CONSTANT       0.50000000
  ath1
    CONSTANT       0.00500000
  atv
    CONSTANT       0.00500000
END griddata

