# File generated by Flopy version 3.3.6 on 12/07/2022 at 20:40:42.
BEGIN options
  PRINT_FLOWS
END options

BEGIN dimensions
  MAXBOUND  1
END dimensions

BEGIN period  1
  7 42 22  -1.43400000E-05
END period  1

