# File generated by Flopy version 3.3.6 on 12/07/2022 at 20:40:42.
BEGIN options
  PRINT_FLOWS
END options

BEGIN sources
  CHD-1  AUX  CONCENTRATION
END sources

