# File generated by Flopy version 3.3.6 on 12/07/2022 at 20:40:42.
BEGIN options
END options

BEGIN timing
  TDIS6  gwt-hecht-mendez.tdis
END timing

BEGIN models
  gwt6  gwt-hecht-mendez.nam  gwt-hecht-mendez
END models

BEGIN exchanges
END exchanges

BEGIN solutiongroup  1
  ims6  gwt-hecht-mendez.ims  gwt-hecht-mendez
END solutiongroup  1

