# File generated by Flopy version 3.3.6 on 04/19/2023 at 21:42:00.
BEGIN options
  BUDGET  FILEOUT  example_3.cbb
  HEAD  FILEOUT  example_3.hds
END options

BEGIN period  1
  SAVE  HEAD  ALL
  SAVE  BUDGET  ALL
  PRINT  HEAD  LAST
END period  1

