# File generated by Flopy version 3.3.6 on 02/01/2024 at 17:44:21.
BEGIN options
END options

BEGIN packages
  DIS6  example_3.dis  dis
  IC6  example_3.ic  ic
  NPF6  example_3.npf  npf
  STO6  example_3.sto  sto
  CHD6  example_3.chd  chd_0
  WEL6  example_3.wel  wel_0
  RCH6  example_3.rcha  rcha_0
  OC6  example_3.oc  oc
END packages

