# File generated by Flopy version 3.3.6 on 04/19/2023 at 21:42:00.
BEGIN options
  SAVE_FLOWS
END options

BEGIN griddata
  icelltype
    CONSTANT  1
  k
    INTERNAL  FACTOR  1.0
      3650.00000000    3650.00000000    3650.00000000    3650.00000000    3650.00000000    3650.00000000    3650.00000000    3650.00000000    3650.00000000    3650.00000000    3650.00000000
      3650.00000000    3650.00000000    3650.00000000    3650.00000000    3650.00000000    3650.00000000    3650.00000000    3650.00000000    3650.00000000    3650.00000000    3650.00000000
      3650.00000000    3650.00000000    3650.00000000    3650.00000000    3650.00000000    3650.00000000    3650.00000000    3650.00000000    3650.00000000    3650.00000000    3650.00000000
      3650.00000000    3650.00000000    3650.00000000    3650.00000000    3650.00000000    3650.00000000    3650.00000000    3650.00000000    3650.00000000    3650.00000000    3650.00000000
      3650.00000000    3650.00000000    3650.00000000    3650.00000000    3650.00000000    3650.00000000    3650.00000000    3650.00000000    3650.00000000    3650.00000000    3650.00000000
      3650.00000000    3650.00000000    3650.00000000    3650.00000000    3650.00000000    3650.00000000    3650.00000000    3650.00000000    3650.00000000    3650.00000000    3650.00000000
      3650.00000000    3650.00000000    3650.00000000    3650.00000000    3650.00000000    3650.00000000    3650.00000000    3650.00000000    3650.00000000    3650.00000000    3650.00000000
      3650.00000000    3650.00000000    3650.00000000    3650.00000000    3650.00000000    3650.00000000    3650.00000000    3650.00000000    3650.00000000    3650.00000000    3650.00000000
      3650.00000000    3650.00000000    3650.00000000    3650.00000000    3650.00000000    3650.00000000    3650.00000000    3650.00000000    3650.00000000    3650.00000000    3650.00000000
      3650.00000000    3650.00000000    3650.00000000    3650.00000000    3650.00000000    3650.00000000    3650.00000000    3650.00000000    3650.00000000    3650.00000000    3650.00000000
      3650.00000000    3650.00000000    3650.00000000    3650.00000000    3650.00000000    3650.00000000    3650.00000000    3650.00000000    3650.00000000    3650.00000000    3650.00000000
END griddata

