# File generated by Flopy version 3.3.6 on 02/01/2024 at 17:44:21.
BEGIN options
END options

BEGIN griddata
  iconvert
    CONSTANT  0
  ss
    CONSTANT  1.00000000E-05
  sy
    CONSTANT       0.25000000
END griddata

