# File generated by Flopy version 3.3.6 on 04/19/2023 at 21:42:00.
BEGIN options
END options

BEGIN griddata
  iconvert
    CONSTANT  0
  ss
    CONSTANT  1.00000000E-05
  sy
    CONSTANT       0.25000000
END griddata

