# File generated by Flopy version 3.3.6 on 04/19/2023 at 21:42:00.
BEGIN options
  TIME_UNITS  years
END options

BEGIN dimensions
  NPER  3
END dimensions

BEGIN perioddata
       1.00000000  1       1.00000000
      30.00000000  30       1.00000000
      30.00000000  30       1.00000000
END perioddata

