# File generated by Flopy version 3.3.6 on 02/01/2024 at 17:44:21.
BEGIN options
END options

BEGIN dimensions
  MAXBOUND  1
END dimensions

BEGIN period  1
  1 6 6       0.00000000
END period  1

BEGIN period  2
  1 6 6  -1.00000000E+09
END period  2

BEGIN period  3
  1 6 6  -2.11500000E+09
END period  3

