# File generated by Flopy version 3.3.6 on 02/01/2024 at 17:44:21.
BEGIN options
  BUDGET  FILEOUT  example_3.cbb
  HEAD  FILEOUT  example_3.hds
END options

BEGIN period  1
  SAVE  HEAD  ALL
  SAVE  BUDGET  ALL
  PRINT  HEAD  LAST
END period  1

