# File generated by Flopy version 3.3.6 on 04/19/2023 at 21:42:00.
BEGIN options
END options

BEGIN dimensions
  NLAY  1
  NROW  11
  NCOL  11
END dimensions

BEGIN griddata
  delr
    CONSTANT    1000.00000000
  delc
    CONSTANT    1000.00000000
  top
    CONSTANT     100.00000000
  botm
    CONSTANT    -900.00000000
END griddata

