# File generated by Flopy version 3.3.6 on 02/01/2024 at 17:44:21.
BEGIN options
  READASARRAYS
END options

BEGIN period  1
  recharge
    INTERNAL  FACTOR  1.0
         0.25000000       0.25000000       0.25000000       0.25000000       0.25000000       0.25000000       0.25000000       0.25000000       0.25000000       0.25000000       0.25000000
         0.25000000       0.25000000       0.25000000       0.25000000       0.25000000       0.25000000       0.25000000       0.25000000       0.25000000       0.25000000       0.25000000
         0.25000000       0.25000000       0.25000000       0.25000000       0.25000000       0.25000000       0.25000000       0.25000000       0.25000000       0.25000000       0.25000000
         0.25000000       0.25000000       0.25000000       0.25000000       0.25000000       0.25000000       0.25000000       0.25000000       0.25000000       0.25000000       0.25000000
         0.25000000       0.25000000       0.25000000       0.25000000       0.25000000       0.25000000       0.25000000       0.25000000       0.25000000       0.25000000       0.25000000
         0.25000000       0.25000000       0.25000000       0.25000000       0.25000000       0.25000000       0.25000000       0.25000000       0.25000000       0.25000000       0.25000000
         0.25000000       0.25000000       0.25000000       0.25000000       0.25000000       0.25000000       0.25000000       0.25000000       0.25000000       0.25000000       0.25000000
         0.25000000       0.25000000       0.25000000       0.25000000       0.25000000       0.25000000       0.25000000       0.25000000       0.25000000       0.25000000       0.25000000
         0.25000000       0.25000000       0.25000000       0.25000000       0.25000000       0.25000000       0.25000000       0.25000000       0.25000000       0.25000000       0.25000000
         0.25000000       0.25000000       0.25000000       0.25000000       0.25000000       0.25000000       0.25000000       0.25000000       0.25000000       0.25000000       0.25000000
         0.25000000       0.25000000       0.25000000       0.25000000       0.25000000       0.25000000       0.25000000       0.25000000       0.25000000       0.25000000       0.25000000
END period  1

BEGIN period  2
  recharge
    INTERNAL  FACTOR  1.0
         0.25000000       0.25000000       0.25000000       0.25000000       0.25000000       0.25000000       0.25000000       0.25000000       0.25000000       0.25000000       0.25000000
         0.25000000       0.25000000       0.25000000       0.25000000       0.25000000       0.25000000       0.25000000       0.25000000       0.25000000       0.25000000       0.25000000
         0.25000000       0.25000000       0.25000000       0.25000000       0.25000000       0.25000000       0.25000000       0.25000000       0.25000000       0.25000000       0.25000000
         0.25000000       0.25000000       0.25000000       0.25000000       0.25000000       0.25000000       0.25000000       0.25000000       0.25000000       0.25000000       0.25000000
         0.25000000       0.25000000       0.25000000       0.25000000       0.25000000       0.25000000       0.25000000       0.25000000       0.25000000       0.25000000       0.25000000
         0.25000000       0.25000000       0.25000000       0.25000000       0.25000000       0.25000000       0.25000000       0.25000000       0.25000000       0.25000000       0.25000000
         0.25000000       0.25000000       0.25000000       0.25000000       0.25000000       0.25000000       0.25000000       0.25000000       0.25000000       0.25000000       0.25000000
         0.25000000       0.25000000       0.25000000       0.25000000       0.25000000       0.25000000       0.25000000       0.25000000       0.25000000       0.25000000       0.25000000
         0.25000000       0.25000000       0.25000000       0.25000000       0.25000000       0.25000000       0.25000000       0.25000000       0.25000000       0.25000000       0.25000000
         0.25000000       0.25000000       0.25000000       0.25000000       0.25000000       0.25000000       0.25000000       0.25000000       0.25000000       0.25000000       0.25000000
         0.25000000       0.25000000       0.25000000       0.25000000       0.25000000       0.25000000       0.25000000       0.25000000       0.25000000       0.25000000       0.25000000
END period  2

BEGIN period  3
  recharge
    INTERNAL  FACTOR  1.0
         0.25000000       0.25000000       0.25000000       0.25000000       0.25000000       0.25000000       0.25000000       0.25000000       0.25000000       0.25000000       0.25000000
         0.25000000       0.25000000       0.25000000       0.25000000       0.25000000       0.25000000       0.25000000       0.25000000       0.25000000       0.25000000       0.25000000
         0.25000000       0.25000000       0.25000000       0.25000000       0.25000000       0.25000000       0.25000000       0.25000000       0.25000000       0.25000000       0.25000000
         0.25000000       0.25000000       0.25000000       0.25000000       0.25000000       0.25000000       0.25000000       0.25000000       0.25000000       0.25000000       0.25000000
         0.25000000       0.25000000       0.25000000       0.25000000       0.25000000       0.25000000       0.25000000       0.25000000       0.25000000       0.25000000       0.25000000
         0.25000000       0.25000000       0.25000000       0.25000000       0.25000000       0.25000000       0.25000000       0.25000000       0.25000000       0.25000000       0.25000000
         0.25000000       0.25000000       0.25000000       0.25000000       0.25000000       0.25000000       0.25000000       0.25000000       0.25000000       0.25000000       0.25000000
         0.25000000       0.25000000       0.25000000       0.25000000       0.25000000       0.25000000       0.25000000       0.25000000       0.25000000       0.25000000       0.25000000
         0.25000000       0.25000000       0.25000000       0.25000000       0.25000000       0.25000000       0.25000000       0.25000000       0.25000000       0.25000000       0.25000000
         0.25000000       0.25000000       0.25000000       0.25000000       0.25000000       0.25000000       0.25000000       0.25000000       0.25000000       0.25000000       0.25000000
         0.25000000       0.25000000       0.25000000       0.25000000       0.25000000       0.25000000       0.25000000       0.25000000       0.25000000       0.25000000       0.25000000
END period  3

