# File generated by Flopy version 3.3.6 on 12/07/2022 at 20:40:04.
BEGIN options
  READASARRAYS
END options

BEGIN period  1
  recharge
    CONSTANT  1.60000000E-09
END period  1

