# File generated by Flopy version 3.3.6 on 12/07/2022 at 20:40:04.
BEGIN griddata
  strt
    CONSTANT      45.00000000
END griddata

