# File generated by Flopy version 3.3.6 on 12/07/2022 at 20:40:04.
BEGIN options
END options

BEGIN dimensions
  MAXBOUND  6
END dimensions

BEGIN period  1
  1 9 16      -0.00820000
  1 11 13      -0.00410000
  1 20 14      -0.00390000
  1 26 10  -8.30000000E-04
  1 29 6  -7.20000000E-04
  1 34 12      -0.00430000
END period  1

