# File generated by Flopy version 3.3.6 on 12/07/2022 at 20:40:04.
BEGIN options
END options

BEGIN dimensions
  MAXBOUND  40
END dimensions

BEGIN period  1
  1 1 15      20.10000000       0.05000000      20.00000000
  1 2 15      19.87307692       0.05000000      19.75000000
  1 3 15      19.64615385       0.05000000      19.50000000
  1 4 15      19.41923077       0.05000000      19.25000000
  1 5 15      19.19230769       0.05000000      19.00000000
  1 6 15      18.96538462       0.05000000      18.75000000
  1 7 15      18.73846154       0.05000000      18.50000000
  1 8 15      18.51153846       0.05000000      18.25000000
  1 9 15      18.28461538       0.05000000      18.00000000
  1 10 15      18.05769231       0.05000000      17.75000000
  1 11 15      17.83076923       0.05000000      17.50000000
  1 12 15      17.60384615       0.05000000      17.25000000
  1 13 15      17.37692308       0.05000000      17.00000000
  1 14 15      17.15000000       0.05000000      16.75000000
  1 15 15      16.92307692       0.05000000      16.50000000
  1 16 15      16.69615385       0.05000000      16.25000000
  1 17 15      16.46923077       0.05000000      16.00000000
  1 18 15      16.24230769       0.05000000      15.75000000
  1 19 15      16.01538462       0.05000000      15.50000000
  1 20 15      15.78846154       0.05000000      15.25000000
  1 21 15      15.56153846       0.05000000      15.00000000
  1 22 15      15.33461538       0.05000000      14.75000000
  1 23 15      15.10769231       0.05000000      14.50000000
  1 24 15      14.88076923       0.05000000      14.25000000
  1 25 15      14.65384615       0.05000000      14.00000000
  1 26 15      14.42692308       0.05000000      13.75000000
  1 27 15      14.20000000       0.05000000      13.50000000
  1 28 15      13.97307692       0.05000000      13.25000000
  1 29 15      13.74615385       0.05000000      13.00000000
  1 30 15      13.51923077       0.05000000      12.75000000
  1 31 15      13.29230769       0.05000000      12.50000000
  1 32 15      13.06538462       0.05000000      12.25000000
  1 33 15      12.83846154       0.05000000      12.00000000
  1 34 15      12.61153846       0.05000000      11.75000000
  1 35 15      12.38461538       0.05000000      11.50000000
  1 36 15      12.15769231       0.05000000      11.25000000
  1 37 15      11.93076923       0.05000000      11.00000000
  1 38 15      11.70384615       0.05000000      10.75000000
  1 39 15      11.47692308       0.05000000      10.50000000
  1 40 15      11.25000000       0.05000000      10.25000000
END period  1

