# File generated by Flopy version 3.3.6 on 12/07/2022 at 20:42:44.
BEGIN options
  BUDGET  FILEOUT  inner.cbc
  HEAD  FILEOUT  inner.hds
END options

BEGIN period  1
  SAVE  HEAD  ALL
  SAVE  BUDGET  ALL
END period  1

