# File generated by Flopy version 3.3.6 on 12/07/2022 at 20:40:58.
BEGIN options
  TIME_UNITS  days
END options

BEGIN dimensions
  NPER  1
END dimensions

BEGIN perioddata
      27.00000000  27       1.00000000
END perioddata

