# File generated by Flopy version 3.3.6 on 12/07/2022 at 20:40:58.
BEGIN options
  auxiliary  CONCENTRATION
  PRINT_INPUT
  PRINT_FLOWS
END options

BEGIN dimensions
  MAXBOUND  1
END dimensions

BEGIN period  1
  1 16 16     100.00000000       0.00000000
END period  1

