# File generated by Flopy version 3.3.6 on 12/07/2022 at 20:40:58.
BEGIN options
END options

BEGIN griddata
  alh
    CONSTANT      10.00000000
  ath1
    CONSTANT      10.00000000
END griddata

