# File generated by Flopy version 3.3.6 on 04/19/2023 at 21:50:06.
BEGIN options
END options

BEGIN dimensions
  NLAY  5
  NROW  24
  NCOL  11
END dimensions

BEGIN griddata
  delr
    CONSTANT    1000.00000000
  delc
    CONSTANT    1000.00000000
  top
    CONSTANT     175.00000000
  botm  LAYERED
    CONSTANT     125.00000000
    CONSTANT      85.00000000
    CONSTANT      75.00000000
    CONSTANT      25.00000000
    CONSTANT       0.00000000
END griddata

