# File generated by Flopy version 3.3.6 on 04/19/2023 at 21:50:06.
BEGIN options
  SAVE_FLOWS
END options

BEGIN griddata
  icelltype
    CONSTANT  1
  k  LAYERED
    INTERNAL  FACTOR  1.0
        3650.00000000    3650.00000000    3650.00000000    3650.00000000    3650.00000000    3650.00000000    3650.00000000    3650.00000000    3650.00000000    3650.00000000    3650.00000000
        3650.00000000    3650.00000000    3650.00000000    3650.00000000    3650.00000000    3650.00000000    3650.00000000    3650.00000000    3650.00000000    3650.00000000    3650.00000000
        3650.00000000    3650.00000000    3650.00000000    3650.00000000    3650.00000000    3650.00000000    3650.00000000    3650.00000000    3650.00000000    3650.00000000    3650.00000000
        3650.00000000    3650.00000000    3650.00000000    3650.00000000    3650.00000000    3650.00000000    3650.00000000    3650.00000000    3650.00000000    3650.00000000    3650.00000000
        3650.00000000    3650.00000000    3650.00000000    3650.00000000    3650.00000000    3650.00000000    3650.00000000    3650.00000000    3650.00000000    3650.00000000    3650.00000000
        3650.00000000    3650.00000000    3650.00000000    3650.00000000    3650.00000000    3650.00000000    3650.00000000    3650.00000000    3650.00000000    3650.00000000    3650.00000000
        3650.00000000    3650.00000000    3650.00000000    3650.00000000    3650.00000000    3650.00000000    3650.00000000    3650.00000000    3650.00000000    3650.00000000    3650.00000000
        3650.00000000    3650.00000000    3650.00000000    3650.00000000    3650.00000000    3650.00000000    3650.00000000    3650.00000000    3650.00000000    3650.00000000    3650.00000000
        3650.00000000    3650.00000000    3650.00000000    3650.00000000    3650.00000000    3650.00000000    3650.00000000    3650.00000000    3650.00000000    3650.00000000    3650.00000000
        3650.00000000    3650.00000000    3650.00000000    3650.00000000    3650.00000000    3650.00000000    3650.00000000    3650.00000000    3650.00000000    3650.00000000    3650.00000000
        3650.00000000    3650.00000000    3650.00000000    3650.00000000    3650.00000000    3650.00000000    3650.00000000    3650.00000000    3650.00000000    3650.00000000    3650.00000000
        3650.00000000    3650.00000000    3650.00000000    3650.00000000    3650.00000000    3650.00000000    3650.00000000    3650.00000000    3650.00000000    3650.00000000    3650.00000000
        3650.00000000    3650.00000000    3650.00000000    3650.00000000    3650.00000000    3650.00000000    3650.00000000    3650.00000000    3650.00000000    3650.00000000    3650.00000000
        3650.00000000    3650.00000000    3650.00000000    3650.00000000    3650.00000000    3650.00000000    3650.00000000    3650.00000000    3650.00000000    3650.00000000    3650.00000000
        3650.00000000    3650.00000000    3650.00000000    3650.00000000    3650.00000000    3650.00000000    3650.00000000    3650.00000000    3650.00000000    3650.00000000    3650.00000000
        3650.00000000    3650.00000000    3650.00000000    3650.00000000    3650.00000000    3650.00000000    3650.00000000    3650.00000000    3650.00000000    3650.00000000    3650.00000000
        3650.00000000    3650.00000000    3650.00000000    3650.00000000    3650.00000000    3650.00000000    3650.00000000    3650.00000000    3650.00000000    3650.00000000    3650.00000000
        3650.00000000    3650.00000000    3650.00000000    3650.00000000    3650.00000000    3650.00000000    3650.00000000    3650.00000000    3650.00000000    3650.00000000    3650.00000000
        3650.00000000    3650.00000000    3650.00000000    3650.00000000    3650.00000000    3650.00000000    3650.00000000    3650.00000000    3650.00000000    3650.00000000    3650.00000000
        3650.00000000    3650.00000000    3650.00000000    3650.00000000    3650.00000000    3650.00000000    3650.00000000    3650.00000000    3650.00000000    3650.00000000    3650.00000000
        3650.00000000    3650.00000000    3650.00000000    3650.00000000    3650.00000000    3650.00000000    3650.00000000    3650.00000000    3650.00000000    3650.00000000    3650.00000000
        3650.00000000    3650.00000000    3650.00000000    3650.00000000    3650.00000000    3650.00000000    3650.00000000    3650.00000000    3650.00000000    3650.00000000    3650.00000000
        3650.00000000    3650.00000000    3650.00000000    3650.00000000    3650.00000000    3650.00000000    3650.00000000    3650.00000000    3650.00000000    3650.00000000    3650.00000000
        3650.00000000    3650.00000000    3650.00000000    3650.00000000    3650.00000000    3650.00000000    3650.00000000    3650.00000000    3650.00000000    3650.00000000    3650.00000000
    INTERNAL  FACTOR  1.0
        3650.00000000    3650.00000000    3650.00000000    3650.00000000    3650.00000000    3650.00000000    3650.00000000    3650.00000000    3650.00000000    3650.00000000    3650.00000000
        3650.00000000    3650.00000000    3650.00000000    3650.00000000    3650.00000000    3650.00000000    3650.00000000    3650.00000000    3650.00000000    3650.00000000    3650.00000000
        3650.00000000    3650.00000000    3650.00000000    3650.00000000    3650.00000000    3650.00000000    3650.00000000    3650.00000000    3650.00000000    3650.00000000    3650.00000000
        3650.00000000    3650.00000000    3650.00000000    3650.00000000    3650.00000000    3650.00000000    3650.00000000    3650.00000000    3650.00000000    3650.00000000    3650.00000000
        3650.00000000    3650.00000000    3650.00000000    3650.00000000    3650.00000000    3650.00000000    3650.00000000    3650.00000000    3650.00000000    3650.00000000    3650.00000000
        3650.00000000    3650.00000000    3650.00000000    3650.00000000    3650.00000000    3650.00000000    3650.00000000    3650.00000000    3650.00000000    3650.00000000    3650.00000000
        3650.00000000    3650.00000000    3650.00000000    3650.00000000    3650.00000000    3650.00000000    3650.00000000    3650.00000000    3650.00000000    3650.00000000    3650.00000000
        3650.00000000    3650.00000000    3650.00000000    3650.00000000    3650.00000000    3650.00000000    3650.00000000    3650.00000000    3650.00000000    3650.00000000    3650.00000000
        3650.00000000    3650.00000000    3650.00000000    3650.00000000    3650.00000000    3650.00000000    3650.00000000    3650.00000000    3650.00000000    3650.00000000    3650.00000000
        3650.00000000    3650.00000000    3650.00000000    3650.00000000    3650.00000000    3650.00000000    3650.00000000    3650.00000000    3650.00000000    3650.00000000    3650.00000000
        3650.00000000    3650.00000000    3650.00000000    3650.00000000    3650.00000000    3650.00000000    3650.00000000    3650.00000000    3650.00000000    3650.00000000    3650.00000000
        3650.00000000    3650.00000000    3650.00000000    3650.00000000    3650.00000000    3650.00000000    3650.00000000    3650.00000000    3650.00000000    3650.00000000    3650.00000000
        3650.00000000    3650.00000000    3650.00000000    3650.00000000    3650.00000000    3650.00000000    3650.00000000    3650.00000000    3650.00000000    3650.00000000    3650.00000000
        3650.00000000    3650.00000000    3650.00000000    3650.00000000    3650.00000000    3650.00000000    3650.00000000    3650.00000000    3650.00000000    3650.00000000    3650.00000000
        3650.00000000    3650.00000000    3650.00000000    3650.00000000    3650.00000000    3650.00000000    3650.00000000    3650.00000000    3650.00000000    3650.00000000    3650.00000000
        3650.00000000    3650.00000000    3650.00000000    3650.00000000    3650.00000000    3650.00000000    3650.00000000    3650.00000000    3650.00000000    3650.00000000    3650.00000000
        3650.00000000    3650.00000000    3650.00000000    3650.00000000    3650.00000000    3650.00000000    3650.00000000    3650.00000000    3650.00000000    3650.00000000    3650.00000000
        3650.00000000    3650.00000000    3650.00000000    3650.00000000    3650.00000000    3650.00000000    3650.00000000    3650.00000000    3650.00000000    3650.00000000    3650.00000000
        3650.00000000    3650.00000000    3650.00000000    3650.00000000    3650.00000000    3650.00000000    3650.00000000    3650.00000000    3650.00000000    3650.00000000    3650.00000000
        3650.00000000    3650.00000000    3650.00000000    3650.00000000    3650.00000000    3650.00000000    3650.00000000    3650.00000000    3650.00000000    3650.00000000    3650.00000000
        3650.00000000    3650.00000000    3650.00000000    3650.00000000    3650.00000000    3650.00000000    3650.00000000    3650.00000000    3650.00000000    3650.00000000    3650.00000000
        3650.00000000    3650.00000000    3650.00000000    3650.00000000    3650.00000000    3650.00000000    3650.00000000    3650.00000000    3650.00000000    3650.00000000    3650.00000000
        3650.00000000    3650.00000000    3650.00000000    3650.00000000    3650.00000000    3650.00000000    3650.00000000    3650.00000000    3650.00000000    3650.00000000    3650.00000000
        3650.00000000    3650.00000000    3650.00000000    3650.00000000    3650.00000000    3650.00000000    3650.00000000    3650.00000000    3650.00000000    3650.00000000    3650.00000000
    INTERNAL  FACTOR  1.0
        3650.00000000    3650.00000000    3650.00000000    3650.00000000    3650.00000000    3650.00000000    3650.00000000    3650.00000000    3650.00000000    3650.00000000    3650.00000000
        3650.00000000    3650.00000000    3650.00000000    3650.00000000    3650.00000000    3650.00000000    3650.00000000    3650.00000000    3650.00000000    3650.00000000    3650.00000000
        3650.00000000    3650.00000000    3650.00000000    3650.00000000    3650.00000000    3650.00000000    3650.00000000    3650.00000000    3650.00000000    3650.00000000    3650.00000000
        3650.00000000    3650.00000000    3650.00000000    3650.00000000    3650.00000000    3650.00000000    3650.00000000    3650.00000000    3650.00000000    3650.00000000    3650.00000000
        3650.00000000    3650.00000000    3650.00000000    3650.00000000    3650.00000000    3650.00000000    3650.00000000    3650.00000000    3650.00000000    3650.00000000    3650.00000000
        3650.00000000    3650.00000000    3650.00000000    3650.00000000    3650.00000000    3650.00000000    3650.00000000    3650.00000000    3650.00000000    3650.00000000    3650.00000000
        3650.00000000    3650.00000000    3650.00000000    3650.00000000    3650.00000000    3650.00000000    3650.00000000    3650.00000000    3650.00000000    3650.00000000    3650.00000000
        3650.00000000    3650.00000000    3650.00000000    3650.00000000    3650.00000000    3650.00000000    3650.00000000    3650.00000000    3650.00000000    3650.00000000    3650.00000000
        3650.00000000    3650.00000000    3650.00000000    3650.00000000    3650.00000000    3650.00000000    3650.00000000    3650.00000000    3650.00000000    3650.00000000    3650.00000000
        3650.00000000    3650.00000000    3650.00000000    3650.00000000    3650.00000000    3650.00000000    3650.00000000    3650.00000000    3650.00000000    3650.00000000    3650.00000000
        3650.00000000    3650.00000000    3650.00000000    3650.00000000    3650.00000000    3650.00000000    3650.00000000    3650.00000000    3650.00000000    3650.00000000    3650.00000000
        3650.00000000    3650.00000000    3650.00000000    3650.00000000    3650.00000000    3650.00000000    3650.00000000    3650.00000000    3650.00000000    3650.00000000    3650.00000000
        3650.00000000    3650.00000000    3650.00000000    3650.00000000    3650.00000000    3650.00000000    3650.00000000    3650.00000000    3650.00000000    3650.00000000    3650.00000000
        3650.00000000    3650.00000000    3650.00000000    3650.00000000    3650.00000000    3650.00000000    3650.00000000    3650.00000000    3650.00000000    3650.00000000    3650.00000000
        3650.00000000    3650.00000000    3650.00000000    3650.00000000    3650.00000000    3650.00000000    3650.00000000    3650.00000000    3650.00000000    3650.00000000    3650.00000000
        3650.00000000    3650.00000000    3650.00000000    3650.00000000    3650.00000000    3650.00000000    3650.00000000    3650.00000000    3650.00000000    3650.00000000    3650.00000000
        3650.00000000    3650.00000000    3650.00000000    3650.00000000    3650.00000000    3650.00000000    3650.00000000    3650.00000000    3650.00000000    3650.00000000    3650.00000000
        3650.00000000    3650.00000000    3650.00000000    3650.00000000    3650.00000000    3650.00000000    3650.00000000    3650.00000000    3650.00000000    3650.00000000    3650.00000000
        3650.00000000    3650.00000000    3650.00000000    3650.00000000    3650.00000000    3650.00000000    3650.00000000    3650.00000000    3650.00000000    3650.00000000    3650.00000000
        3650.00000000    3650.00000000    3650.00000000    3650.00000000    3650.00000000    3650.00000000    3650.00000000    3650.00000000    3650.00000000    3650.00000000    3650.00000000
        3650.00000000    3650.00000000    3650.00000000    3650.00000000    3650.00000000    3650.00000000    3650.00000000    3650.00000000    3650.00000000    3650.00000000    3650.00000000
        3650.00000000    3650.00000000    3650.00000000    3650.00000000    3650.00000000    3650.00000000    3650.00000000    3650.00000000    3650.00000000    3650.00000000    3650.00000000
        3650.00000000    3650.00000000    3650.00000000    3650.00000000    3650.00000000    3650.00000000    3650.00000000    3650.00000000    3650.00000000    3650.00000000    3650.00000000
        3650.00000000    3650.00000000    3650.00000000    3650.00000000    3650.00000000    3650.00000000    3650.00000000    3650.00000000    3650.00000000    3650.00000000    3650.00000000
    INTERNAL  FACTOR  1.0
        3650.00000000    3650.00000000    3650.00000000    3650.00000000    3650.00000000    3650.00000000    3650.00000000    3650.00000000    3650.00000000    3650.00000000    3650.00000000
        3650.00000000    3650.00000000    3650.00000000    3650.00000000    3650.00000000    3650.00000000    3650.00000000    3650.00000000    3650.00000000    3650.00000000    3650.00000000
        3650.00000000    3650.00000000    3650.00000000    3650.00000000    3650.00000000    3650.00000000    3650.00000000    3650.00000000    3650.00000000    3650.00000000    3650.00000000
        3650.00000000    3650.00000000    3650.00000000    3650.00000000    3650.00000000    3650.00000000    3650.00000000    3650.00000000    3650.00000000    3650.00000000    3650.00000000
        3650.00000000    3650.00000000    3650.00000000    3650.00000000    3650.00000000    3650.00000000    3650.00000000    3650.00000000    3650.00000000    3650.00000000    3650.00000000
        3650.00000000    3650.00000000    3650.00000000    3650.00000000    3650.00000000    3650.00000000    3650.00000000    3650.00000000    3650.00000000    3650.00000000    3650.00000000
        3650.00000000    3650.00000000    3650.00000000    3650.00000000    3650.00000000    3650.00000000    3650.00000000    3650.00000000    3650.00000000    3650.00000000    3650.00000000
        3650.00000000    3650.00000000    3650.00000000    3650.00000000    3650.00000000    3650.00000000    3650.00000000    3650.00000000    3650.00000000    3650.00000000    3650.00000000
        3650.00000000    3650.00000000    3650.00000000    3650.00000000    3650.00000000    3650.00000000    3650.00000000    3650.00000000    3650.00000000    3650.00000000    3650.00000000
        3650.00000000    3650.00000000    3650.00000000    3650.00000000    3650.00000000    3650.00000000    3650.00000000    3650.00000000    3650.00000000    3650.00000000    3650.00000000
        3650.00000000    3650.00000000    3650.00000000    3650.00000000    3650.00000000    3650.00000000    3650.00000000    3650.00000000    3650.00000000    3650.00000000    3650.00000000
        3650.00000000    3650.00000000    3650.00000000    3650.00000000    3650.00000000    3650.00000000    3650.00000000    3650.00000000    3650.00000000    3650.00000000    3650.00000000
        3650.00000000    3650.00000000    3650.00000000    3650.00000000    3650.00000000    3650.00000000    3650.00000000    3650.00000000    3650.00000000    3650.00000000    3650.00000000
        3650.00000000    3650.00000000    3650.00000000    3650.00000000    3650.00000000    3650.00000000    3650.00000000    3650.00000000    3650.00000000    3650.00000000    3650.00000000
        3650.00000000    3650.00000000    3650.00000000    3650.00000000    3650.00000000    3650.00000000    3650.00000000    3650.00000000    3650.00000000    3650.00000000    3650.00000000
        3650.00000000    3650.00000000    3650.00000000    3650.00000000    3650.00000000    3650.00000000    3650.00000000    3650.00000000    3650.00000000    3650.00000000    3650.00000000
        3650.00000000    3650.00000000    3650.00000000    3650.00000000    3650.00000000    3650.00000000    3650.00000000    3650.00000000    3650.00000000    3650.00000000    3650.00000000
        3650.00000000    3650.00000000    3650.00000000    3650.00000000    3650.00000000    3650.00000000    3650.00000000    3650.00000000    3650.00000000    3650.00000000    3650.00000000
        3650.00000000    3650.00000000    3650.00000000    3650.00000000    3650.00000000    3650.00000000    3650.00000000    3650.00000000    3650.00000000    3650.00000000    3650.00000000
        3650.00000000    3650.00000000    3650.00000000    3650.00000000    3650.00000000    3650.00000000    3650.00000000    3650.00000000    3650.00000000    3650.00000000    3650.00000000
        3650.00000000    3650.00000000    3650.00000000    3650.00000000    3650.00000000    3650.00000000    3650.00000000    3650.00000000    3650.00000000    3650.00000000    3650.00000000
        3650.00000000    3650.00000000    3650.00000000    3650.00000000    3650.00000000    3650.00000000    3650.00000000    3650.00000000    3650.00000000    3650.00000000    3650.00000000
        3650.00000000    3650.00000000    3650.00000000    3650.00000000    3650.00000000    3650.00000000    3650.00000000    3650.00000000    3650.00000000    3650.00000000    3650.00000000
        3650.00000000    3650.00000000    3650.00000000    3650.00000000    3650.00000000    3650.00000000    3650.00000000    3650.00000000    3650.00000000    3650.00000000    3650.00000000
    INTERNAL  FACTOR  1.0
        3650.00000000    3650.00000000    3650.00000000    3650.00000000    3650.00000000    3650.00000000    3650.00000000    3650.00000000    3650.00000000    3650.00000000    3650.00000000
        3650.00000000    3650.00000000    3650.00000000    3650.00000000    3650.00000000    3650.00000000    3650.00000000    3650.00000000    3650.00000000    3650.00000000    3650.00000000
        3650.00000000    3650.00000000    3650.00000000    3650.00000000    3650.00000000    3650.00000000    3650.00000000    3650.00000000    3650.00000000    3650.00000000    3650.00000000
        3650.00000000    3650.00000000    3650.00000000    3650.00000000    3650.00000000    3650.00000000    3650.00000000    3650.00000000    3650.00000000    3650.00000000    3650.00000000
        3650.00000000    3650.00000000    3650.00000000    3650.00000000    3650.00000000    3650.00000000    3650.00000000    3650.00000000    3650.00000000    3650.00000000    3650.00000000
        3650.00000000    3650.00000000    3650.00000000    3650.00000000    3650.00000000    3650.00000000    3650.00000000    3650.00000000    3650.00000000    3650.00000000    3650.00000000
        3650.00000000    3650.00000000    3650.00000000    3650.00000000    3650.00000000    3650.00000000    3650.00000000    3650.00000000    3650.00000000    3650.00000000    3650.00000000
        3650.00000000    3650.00000000    3650.00000000    3650.00000000    3650.00000000    3650.00000000    3650.00000000    3650.00000000    3650.00000000    3650.00000000    3650.00000000
        3650.00000000    3650.00000000    3650.00000000    3650.00000000    3650.00000000    3650.00000000    3650.00000000    3650.00000000    3650.00000000    3650.00000000    3650.00000000
        3650.00000000    3650.00000000    3650.00000000    3650.00000000    3650.00000000    3650.00000000    3650.00000000    3650.00000000    3650.00000000    3650.00000000    3650.00000000
        3650.00000000    3650.00000000    3650.00000000    3650.00000000    3650.00000000    3650.00000000    3650.00000000    3650.00000000    3650.00000000    3650.00000000    3650.00000000
        3650.00000000    3650.00000000    3650.00000000    3650.00000000    3650.00000000    3650.00000000    3650.00000000    3650.00000000    3650.00000000    3650.00000000    3650.00000000
        3650.00000000    3650.00000000    3650.00000000    3650.00000000    3650.00000000    3650.00000000    3650.00000000    3650.00000000    3650.00000000    3650.00000000    3650.00000000
        3650.00000000    3650.00000000    3650.00000000    3650.00000000    3650.00000000    3650.00000000    3650.00000000    3650.00000000    3650.00000000    3650.00000000    3650.00000000
        3650.00000000    3650.00000000    3650.00000000    3650.00000000    3650.00000000    3650.00000000    3650.00000000    3650.00000000    3650.00000000    3650.00000000    3650.00000000
        3650.00000000    3650.00000000    3650.00000000    3650.00000000    3650.00000000    3650.00000000    3650.00000000    3650.00000000    3650.00000000    3650.00000000    3650.00000000
        3650.00000000    3650.00000000    3650.00000000    3650.00000000    3650.00000000    3650.00000000    3650.00000000    3650.00000000    3650.00000000    3650.00000000    3650.00000000
        3650.00000000    3650.00000000    3650.00000000    3650.00000000    3650.00000000    3650.00000000    3650.00000000    3650.00000000    3650.00000000    3650.00000000    3650.00000000
        3650.00000000    3650.00000000    3650.00000000    3650.00000000    3650.00000000    3650.00000000    3650.00000000    3650.00000000    3650.00000000    3650.00000000    3650.00000000
        3650.00000000    3650.00000000    3650.00000000    3650.00000000    3650.00000000    3650.00000000    3650.00000000    3650.00000000    3650.00000000    3650.00000000    3650.00000000
        3650.00000000    3650.00000000    3650.00000000    3650.00000000    3650.00000000    3650.00000000    3650.00000000    3650.00000000    3650.00000000    3650.00000000    3650.00000000
        3650.00000000    3650.00000000    3650.00000000    3650.00000000    3650.00000000    3650.00000000    3650.00000000    3650.00000000    3650.00000000    3650.00000000    3650.00000000
        3650.00000000    3650.00000000    3650.00000000    3650.00000000    3650.00000000    3650.00000000    3650.00000000    3650.00000000    3650.00000000    3650.00000000    3650.00000000
        3650.00000000    3650.00000000    3650.00000000    3650.00000000    3650.00000000    3650.00000000    3650.00000000    3650.00000000    3650.00000000    3650.00000000    3650.00000000
END griddata

