# File generated by Flopy version 3.3.6 on 12/07/2022 at 20:40:47.
BEGIN options
  FIRST_ORDER_DECAY
END options

BEGIN griddata
  porosity
    CONSTANT       0.10000000
  decay
    CONSTANT       0.01000000
END griddata

