# File generated by Flopy version 3.3.6 on 12/07/2022 at 20:42:42.
BEGIN options
  READASARRAYS
END options

BEGIN period  1
  recharge
    CONSTANT  3.00000000E-08
END period  1

