# File generated by Flopy version 3.3.6 on 12/07/2022 at 20:41:01.
BEGIN options
  TIME_UNITS  days
END options

BEGIN dimensions
  NPER  1
END dimensions

BEGIN perioddata
     100.00000000  10       1.00000000
END perioddata

