# File generated by Flopy version 3.3.6 on 12/07/2022 at 20:41:01.
BEGIN options
  auxiliary  CONCENTRATION
  PRINT_INPUT
  PRINT_FLOWS
END options

BEGIN dimensions
  MAXBOUND  1
END dimensions

BEGIN period  1
  7 8 3       0.50000000     100.00000000
END period  1

