# File generated by Flopy version 3.3.6 on 12/07/2022 at 20:40:48.
BEGIN options
  PRINT_OPTION  summary
END options

BEGIN linear
  INNER_MAXIMUM  300
END linear

