# File generated by Flopy version 3.3.6 on 12/07/2022 at 20:40:09.
BEGIN options
  
  SAVE_SPECIFIC_DISCHARGE
END options

BEGIN griddata
  icelltype
    CONSTANT  0
  k
    CONSTANT       1.00000000
  k22
    CONSTANT       0.01000000
  angle1
    CONSTANT       0.00000000
END griddata

