# File generated by Flopy version 3.3.6 on 12/07/2022 at 20:40:59.
BEGIN options
  XT3D_OFF
END options

BEGIN griddata
  alh
    CONSTANT     100.00000000
  ath1
    CONSTANT     100.00000000
END griddata

