# File generated by Flopy version 3.3.6 on 12/07/2022 at 20:40:53.
BEGIN options
END options

BEGIN griddata
  porosity
    CONSTANT       0.37000000
  bulk_density
    CONSTANT       1.58700000
END griddata

