# File generated by Flopy version 3.3.6 on 12/07/2022 at 20:40:53.
BEGIN options
END options

BEGIN griddata
  thetaim
    CONSTANT       1.58700000
  zetaim
    CONSTANT       0.01000000
END griddata

