# File generated by Flopy version 3.3.6 on 12/07/2022 at 20:40:26.
BEGIN options
  BUDGET  FILEOUT  child.cbc
  HEAD  FILEOUT  child.hds
END options

BEGIN period  1
  SAVE  HEAD  ALL
  SAVE  BUDGET  ALL
END period  1

