# File generated by Flopy version 3.3.6 on 12/07/2022 at 20:40:24.
BEGIN options
  SAVE_FLOWS
END options

BEGIN packages
  DIS6  child.dis  dis
  NPF6  child.npf  npf
  IC6  child.ic  ic
  RIV6  child.riv  riv
  RCH6  child.rcha  rch
  OC6  child.oc  oc
END packages

