# File generated by Flopy version 3.3.6 on 12/07/2022 at 20:40:24.
BEGIN options
  BUDGET  FILEOUT  parent.cbc
  HEAD  FILEOUT  parent.hds
END options

BEGIN period  1
  SAVE  HEAD  ALL
  SAVE  BUDGET  ALL
END period  1

