# File generated by Flopy version 3.3.6 on 12/07/2022 at 20:40:57.
BEGIN options
END options

BEGIN griddata
  alh
    CONSTANT       2.00000000
  ath1
    CONSTANT       0.20000000
END griddata

