# File generated by Flopy version 3.3.6 on 12/07/2022 at 20:40:57.
BEGIN options
  SCHEME  upstream
END options

