# File generated by Flopy version 3.3.6 on 12/07/2022 at 20:41:12.
BEGIN options
END options

BEGIN dimensions
  MAXBOUND  3
END dimensions

BEGIN period  1
  1 43 80    1925.00000000
  1 44 80    1925.00000000
  1 45 80    1925.00000000
END period  1

