# File generated by Flopy version 3.3.6 on 12/07/2022 at 20:42:37.
BEGIN options
END options

BEGIN timing
  TDIS6  ex-gwf-sfr-p01.tdis
END timing

BEGIN models
  gwf6  ex-gwf-sfr-p01.nam  ex-gwf-sfr-p01
END models

BEGIN exchanges
END exchanges

BEGIN solutiongroup  1
  ims6  ex-gwf-sfr-p01.ims  ex-gwf-sfr-p01
END solutiongroup  1

