# File generated by Flopy version 3.3.6 on 12/07/2022 at 20:42:43.
BEGIN options
  SAVE_FLOWS
END options

BEGIN packages
  DISV6  ex-gwf-u1disv-x.disv  disv
  NPF6  ex-gwf-u1disv-x.npf  npf
  IC6  ex-gwf-u1disv-x.ic  ic
  CHD6  ex-gwf-u1disv-x.left.chd  chd-left
  CHD6  ex-gwf-u1disv-x.right.chd  chd-right
  OC6  ex-gwf-u1disv-x.oc  oc
END packages

