# File generated by Flopy version 3.3.6 on 12/07/2022 at 20:42:43.
BEGIN options
END options

BEGIN dimensions
  MAXBOUND  7
END dimensions

BEGIN period  1
  1 1       1.00000000
  1 8       1.00000000
  1 15       1.00000000
  1 19       1.00000000
  1 23       1.00000000
  1 27       1.00000000
  1 34       1.00000000
END period  1

