# File generated by Flopy version 3.3.6 on 12/07/2022 at 20:42:43.
BEGIN options
END options

BEGIN dimensions
  MAXBOUND  7
END dimensions

BEGIN period  1
  1 7       0.00000000
  1 14       0.00000000
  1 18       0.00000000
  1 22       0.00000000
  1 26       0.00000000
  1 33       0.00000000
  1 40       0.00000000
END period  1

