# File generated by Flopy version 3.3.6 on 12/07/2022 at 20:40:52.
BEGIN options
END options

BEGIN griddata
  porosity
    CONSTANT       0.25000000
  decay
    CONSTANT       0.00000000
  decay_sorbed
    CONSTANT       0.00000000
  bulk_density
    CONSTANT       0.25000000
  distcoef
    CONSTANT       1.00000000
END griddata

