# File generated by Flopy version 3.3.6 on 12/07/2022 at 20:41:17.
BEGIN griddata
  strt
    CONSTANT      75.00000000
END griddata

