# File generated by Flopy version 3.3.6 on 12/07/2022 at 20:41:17.
BEGIN options
  DENSEREF       0.00106500
END options

BEGIN dimensions
  NRHOSPECIES  1
END dimensions

BEGIN packagedata
  1       0.64600000       0.00000000  trans  concentration
END packagedata

