# File generated by Flopy version 3.3.6 on 12/07/2022 at 20:41:17.
BEGIN options
  SAVE_FLOWS
END options

BEGIN packages
  DIS6  flow.dis  dis
  NPF6  flow.npf  npf
  STO6  flow.sto  sto
  IC6  flow.ic  ic
  BUY6  flow.buy  buy
  CHD6  flow.chd  chd-1
  RCH6  flow.rch  rch-1
  OC6  flow.oc  oc
END packages

