# File generated by Flopy version 3.3.6 on 12/07/2022 at 20:41:17.
BEGIN options
  SAVE_SPECIFIC_DISCHARGE
END options

BEGIN griddata
  icelltype
    CONSTANT  0
  k
    CONSTANT       3.05000000
END griddata

