# File generated by Flopy version 3.3.6 on 12/07/2022 at 20:41:17.
BEGIN options
END options

BEGIN packages
  DIS6  trans.dis  dis
  MST6  trans.mst  mst
  IC6  trans.ic  ic
  ADV6  trans.adv  adv
  DSP6  trans.dsp  dsp
  SSM6  trans.ssm  ssm
  CNC6  trans.cnc  cnc-1
  OC6  trans.oc  oc
END packages

