# File generated by Flopy version 3.3.6 on 12/07/2022 at 20:41:17.
BEGIN options
  XT3D_OFF
END options

BEGIN griddata
  diffc
    CONSTANT  9.00000000E-04
  alh
    CONSTANT  9.00000000E-07
  ath1
    CONSTANT  9.00000000E-07
END griddata

