# File generated by Flopy version 3.3.6 on 12/07/2022 at 20:41:17.
BEGIN options
END options

BEGIN dimensions
  MAXBOUND  67
END dimensions

BEGIN period  1
  1 1 1  1.10124021E-04
  1 1 2  1.10031813E-04
  1 1 3  1.09991135E-04
  1 1 4  1.09938292E-04
  1 1 5  1.10061362E-04
  1 1 6  1.10028340E-04
  1 1 7  1.10082979E-04
  1 1 8  1.10102431E-04
  1 1 9  1.09920470E-04
  1 1 10  1.09966889E-04
  1 1 11  1.10013635E-04
  1 1 12  1.09872255E-04
  1 1 13  1.10047074E-04
  1 1 14  1.10083481E-04
  1 1 15  1.09950205E-04
  1 1 16  1.10123143E-04
  1 1 17  1.10103047E-04
  1 1 18  1.09990969E-04
  1 1 19  1.09914246E-04
  1 1 20  1.09928431E-04
  1 1 21  1.10093455E-04
  1 1 22  1.10060162E-04
  1 1 23  1.10016964E-04
  1 1 24  1.09974492E-04
  1 1 25  1.09984941E-04
  1 1 26  1.09926161E-04
  1 1 27  1.10117872E-04
  1 1 28  1.10105048E-04
  1 1 29  1.09926562E-04
  1 1 30  1.09892544E-04
  1 1 31  1.09909278E-04
  1 1 32  1.10088393E-04
  1 1 33  1.10041930E-04
  1 1 34  1.09945087E-04
  1 1 35  1.09932811E-04
  1 1 36  1.09972404E-04
  1 1 37  1.10113591E-04
  1 1 38  1.09982500E-04
  1 1 39  1.09980550E-04
  1 1 40  1.10082337E-04
  1 1 41  1.09944619E-04
  1 1 42  1.09882159E-04
  1 1 43  1.10026231E-04
  1 1 44  1.09959053E-04
  1 1 45  1.10052327E-04
  1 1 46  1.09936329E-04
  1 1 47  1.10119198E-04
  1 1 48  1.10079242E-04
  1 1 49  1.09955608E-04
  1 1 50  1.09962635E-04
  1 1 51  1.10057406E-04
  1 1 52  1.09941338E-04
  1 1 53  1.10065128E-04
  1 1 54  1.10114804E-04
  1 1 55  1.09920971E-04
  1 1 56  1.10006887E-04
  1 1 57  1.09968313E-04
  1 1 58  1.10026884E-04
  1 1 59  1.09937377E-04
  1 1 60  1.10066518E-04
  1 1 61  1.09930956E-04
  1 1 62  1.10091423E-04
  1 1 63  1.10083291E-04
  1 1 64  1.10072931E-04
  1 1 65  1.10087369E-04
  1 1 66  1.09906718E-04
  1 1 67  1.09922030E-04
END period  1

