# File generated by Flopy version 3.3.6 on 12/07/2022 at 20:40:47.
BEGIN options
  SORPTION  linear
END options

BEGIN griddata
  porosity
    CONSTANT       0.10000000
  bulk_density
    CONSTANT       1.00000000
  distcoef
    CONSTANT       0.10000000
END griddata

