# File generated by Flopy version 3.3.6 on 12/07/2022 at 20:40:09.
BEGIN options
END options

BEGIN timing
  TDIS6  ex-gwf-hanic.tdis
END timing

BEGIN models
  gwf6  ex-gwf-hanic.nam  ex-gwf-hanic
END models

BEGIN exchanges
END exchanges

BEGIN solutiongroup  1
  ims6  ex-gwf-hanic.ims  ex-gwf-hanic
END solutiongroup  1

