# File generated by Flopy version 3.3.6 on 12/07/2022 at 20:40:43.
BEGIN options
  TIME_UNITS  seconds
END options

BEGIN dimensions
  NPER  1
END dimensions

BEGIN perioddata
       0.50000000  500       1.00000000
END perioddata

