# File generated by Flopy version 3.3.6 on 12/07/2022 at 20:40:43.
BEGIN options
  XT3D_OFF
END options

BEGIN griddata
  diffc
    CONSTANT       0.57024000
END griddata

