# File generated by Flopy version 3.3.6 on 02/01/2024 at 17:49:00.
BEGIN options
END options

BEGIN timing
  TDIS6  project_1.tdis
END timing

BEGIN models
  gwf6  project_1.nam  project_1
END models

BEGIN exchanges
END exchanges

BEGIN solutiongroup  1
  ims6  project_1.ims  project_1
END solutiongroup  1

