# File generated by Flopy version 3.3.6 on 04/19/2023 at 23:21:14.
BEGIN options
  BUDGET  FILEOUT  project_1.cbb
  HEAD  FILEOUT  project_1.hds
END options

BEGIN period  1
  SAVE  HEAD  ALL
  SAVE  BUDGET  ALL
  PRINT  HEAD  LAST
END period  1

