# File generated by Flopy version 3.3.6 on 04/19/2023 at 23:21:14.
BEGIN options
  READASARRAYS
END options

BEGIN period  1
  recharge
    INTERNAL  FACTOR  1.0
         0.25000000       0.25000000       0.25000000       0.25000000       0.25000000       0.25000000       0.25000000       0.25000000       0.25000000       0.25000000       0.25000000
         0.25000000       0.25000000       0.25000000       0.25000000       0.25000000       0.25000000       0.25000000       0.25000000       0.25000000       0.25000000       0.25000000
         0.25000000       0.25000000       0.25000000       0.25000000       0.25000000       0.25000000       0.25000000       0.25000000       0.25000000       0.25000000       0.25000000
         0.25000000       0.25000000       0.25000000       0.25000000       0.25000000       0.25000000       0.25000000       0.25000000       0.25000000       0.25000000       0.25000000
         0.25000000       0.25000000       0.25000000       0.25000000       0.25000000       0.25000000       0.25000000       0.25000000       0.25000000       0.25000000       0.25000000
         0.25000000       0.25000000       0.25000000       0.25000000       0.25000000       0.25000000       0.25000000       0.25000000       0.25000000       0.25000000       0.25000000
         0.25000000       0.25000000       0.25000000       0.25000000       0.25000000       0.25000000       0.25000000       0.25000000       0.25000000       0.25000000       0.25000000
         0.25000000       0.25000000       0.25000000       0.25000000       0.25000000       0.25000000       0.25000000       0.25000000       0.25000000       0.25000000       0.25000000
         0.25000000       0.25000000       0.25000000       0.25000000       0.25000000       0.25000000       0.25000000       0.25000000       0.25000000       0.25000000       0.25000000
         0.25000000       0.25000000       0.25000000       0.25000000       0.25000000       0.25000000       0.25000000       0.25000000       0.25000000       0.25000000       0.25000000
         0.25000000       0.25000000       0.25000000       0.25000000       0.25000000       0.25000000       0.25000000       0.25000000       0.25000000       0.25000000       0.25000000
         0.25000000       0.25000000       0.25000000       0.25000000       0.25000000       0.25000000       0.25000000       0.25000000       0.25000000       0.25000000       0.25000000
         0.25000000       0.25000000       0.25000000       0.25000000       0.25000000       0.25000000       0.25000000       0.25000000       0.25000000       0.25000000       0.25000000
         0.25000000       0.25000000       0.25000000       0.25000000       0.25000000       0.25000000       0.25000000       0.25000000       0.25000000       0.25000000       0.25000000
         0.25000000       0.25000000       0.25000000       0.25000000       0.25000000       0.25000000       0.25000000       0.25000000       0.25000000       0.25000000       0.25000000
         0.25000000       0.25000000       0.25000000       0.25000000       0.25000000       0.25000000       0.25000000       0.25000000       0.25000000       0.25000000       0.25000000
         0.25000000       0.25000000       0.25000000       0.25000000       0.25000000       0.25000000       0.25000000       0.25000000       0.25000000       0.25000000       0.25000000
         0.25000000       0.25000000       0.25000000       0.25000000       0.25000000       0.25000000       0.25000000       0.25000000       0.25000000       0.25000000       0.25000000
         0.25000000       0.25000000       0.25000000       0.25000000       0.25000000       0.25000000       0.25000000       0.25000000       0.25000000       0.25000000       0.25000000
         0.25000000       0.25000000       0.25000000       0.25000000       0.25000000       0.25000000       0.25000000       0.25000000       0.25000000       0.25000000       0.25000000
         0.25000000       0.25000000       0.25000000       0.25000000       0.25000000       0.25000000       0.25000000       0.25000000       0.25000000       0.25000000       0.25000000
         0.25000000       0.25000000       0.25000000       0.25000000       0.25000000       0.25000000       0.25000000       0.25000000       0.25000000       0.25000000       0.25000000
         0.25000000       0.25000000       0.25000000       0.25000000       0.25000000       0.25000000       0.25000000       0.25000000       0.25000000       0.25000000       0.25000000
         0.25000000       0.25000000       0.25000000       0.25000000       0.25000000       0.25000000       0.25000000       0.25000000       0.25000000       0.25000000       0.25000000
END period  1

BEGIN period  2
  recharge
    INTERNAL  FACTOR  1.0
         0.25000000       0.25000000       0.25000000       0.25000000       0.25000000       0.25000000       0.25000000       0.25000000       0.25000000       0.25000000       0.25000000
         0.25000000       0.25000000       0.25000000       0.25000000       0.25000000       0.25000000       0.25000000       0.25000000       0.25000000       0.25000000       0.25000000
         0.25000000       0.25000000       0.25000000       0.25000000       0.25000000       0.25000000       0.25000000       0.25000000       0.25000000       0.25000000       0.25000000
         0.25000000       0.25000000       0.25000000       0.25000000       0.25000000       0.25000000       0.25000000       0.25000000       0.25000000       0.25000000       0.25000000
         0.25000000       0.25000000       0.25000000       0.25000000       0.25000000       0.25000000       0.25000000       0.25000000       0.25000000       0.25000000       0.25000000
         0.25000000       0.25000000       0.25000000       0.25000000       0.25000000       0.25000000       0.25000000       0.25000000       0.25000000       0.25000000       0.25000000
         0.25000000       0.25000000       0.25000000       0.25000000       0.25000000       0.25000000       0.25000000       0.25000000       0.25000000       0.25000000       0.25000000
         0.25000000       0.25000000       0.25000000       0.25000000       0.25000000       0.25000000       0.25000000       0.25000000       0.25000000       0.25000000       0.25000000
         0.25000000       0.25000000       0.25000000       0.25000000       0.25000000       0.25000000       0.25000000       0.25000000       0.25000000       0.25000000       0.25000000
         0.25000000       0.25000000       0.25000000       0.25000000       0.25000000       0.25000000       0.25000000       0.25000000       0.25000000       0.25000000       0.25000000
         0.25000000       0.25000000       0.25000000       0.25000000       0.25000000       0.25000000       0.25000000       0.25000000       0.25000000       0.25000000       0.25000000
         0.25000000       0.25000000       0.25000000       0.25000000       0.25000000       0.25000000       0.25000000       0.25000000       0.25000000       0.25000000       0.25000000
         0.25000000       0.25000000       0.25000000       0.25000000       0.25000000       0.25000000       0.25000000       0.25000000       0.25000000       0.25000000       0.25000000
         0.25000000       0.25000000       0.25000000       0.25000000       0.25000000       0.25000000       0.25000000       0.25000000       0.25000000       0.25000000       0.25000000
         0.25000000       0.25000000       0.25000000       0.25000000       0.25000000       0.25000000       0.25000000       0.25000000       0.25000000       0.25000000       0.25000000
         0.25000000       0.25000000       0.25000000       0.25000000       0.25000000       0.25000000       0.25000000       0.25000000       0.25000000       0.25000000       0.25000000
         0.25000000       0.25000000       0.25000000       0.25000000       0.25000000       0.25000000       0.25000000       0.25000000       0.25000000       0.25000000       0.25000000
         0.25000000       0.25000000       0.25000000       0.25000000       0.25000000       0.25000000       0.25000000       0.25000000       0.25000000       0.25000000       0.25000000
         0.25000000       0.25000000       0.25000000       0.25000000       0.25000000       0.25000000       0.25000000       0.25000000       0.25000000       0.25000000       0.25000000
         0.25000000       0.25000000       0.25000000       0.25000000       0.25000000       0.25000000       0.25000000       0.25000000       0.25000000       0.25000000       0.25000000
         0.25000000       0.25000000       0.25000000       0.25000000       0.25000000       0.25000000       0.25000000       0.25000000       0.25000000       0.25000000       0.25000000
         0.25000000       0.25000000       0.25000000       0.25000000       0.25000000       0.25000000       0.25000000       0.25000000       0.25000000       0.25000000       0.25000000
         0.25000000       0.25000000       0.25000000       0.25000000       0.25000000       0.25000000       0.25000000       0.25000000       0.25000000       0.25000000       0.25000000
         0.25000000       0.25000000       0.25000000       0.25000000       0.25000000       0.25000000       0.25000000       0.25000000       0.25000000       0.25000000       0.25000000
END period  2

BEGIN period  3
  recharge
    INTERNAL  FACTOR  1.0
         0.25000000       0.25000000       0.25000000       0.25000000       0.25000000       0.25000000       0.25000000       0.25000000       0.25000000       0.25000000       0.25000000
         0.25000000       0.25000000       0.25000000       0.25000000       0.25000000       0.25000000       0.25000000       0.25000000       0.25000000       0.25000000       0.25000000
         0.25000000       0.25000000       0.25000000       0.25000000       0.25000000       0.25000000       0.25000000       0.25000000       0.25000000       0.25000000       0.25000000
         0.25000000       0.25000000       0.25000000       0.25000000       0.25000000       0.25000000       0.25000000       0.25000000       0.25000000       0.25000000       0.25000000
         0.25000000       0.25000000       0.25000000       0.25000000       0.25000000       0.25000000       0.25000000       0.25000000       0.25000000       0.25000000       0.25000000
         0.25000000       0.25000000       0.25000000       0.25000000       0.25000000       0.25000000       0.25000000       0.25000000       0.25000000       0.25000000       0.25000000
         0.25000000       0.25000000       0.25000000       0.25000000       0.25000000       0.25000000       0.25000000       0.25000000       0.25000000       0.25000000       0.25000000
         0.25000000       0.25000000       0.25000000       0.25000000       0.25000000       0.25000000       0.25000000       0.25000000       0.25000000       0.25000000       0.25000000
         0.25000000       0.25000000       0.25000000       0.25000000       0.25000000       0.25000000       0.25000000       0.25000000       0.25000000       0.25000000       0.25000000
         0.25000000       0.25000000       0.25000000       0.25000000       0.25000000       0.25000000       0.25000000       0.25000000       0.25000000       0.25000000       0.25000000
         0.25000000       0.25000000       0.25000000       0.25000000       0.25000000       0.25000000       0.25000000       0.25000000       0.25000000       0.25000000       0.25000000
         0.25000000       0.25000000       0.25000000       0.25000000       0.25000000       0.25000000       0.25000000       0.25000000       0.25000000       0.25000000       0.25000000
         0.25000000       0.25000000       0.25000000       0.25000000       0.25000000       0.25000000       0.25000000       0.25000000       0.25000000       0.25000000       0.25000000
         0.25000000       0.25000000       0.25000000       0.25000000       0.25000000       0.25000000       0.25000000       0.25000000       0.25000000       0.25000000       0.25000000
         0.25000000       0.25000000       0.25000000       0.25000000       0.25000000       0.25000000       0.25000000       0.25000000       0.25000000       0.25000000       0.25000000
         0.25000000       0.25000000       0.25000000       0.25000000       0.25000000       0.25000000       0.25000000       0.25000000       0.25000000       0.25000000       0.25000000
         0.25000000       0.25000000       0.25000000       0.25000000       0.25000000       0.25000000       0.25000000       0.25000000       0.25000000       0.25000000       0.25000000
         0.25000000       0.25000000       0.25000000       0.25000000       0.25000000       0.25000000       0.25000000       0.25000000       0.25000000       0.25000000       0.25000000
         0.25000000       0.25000000       0.25000000       0.25000000       0.25000000       0.25000000       0.25000000       0.25000000       0.25000000       0.25000000       0.25000000
         0.25000000       0.25000000       0.25000000       0.25000000       0.25000000       0.25000000       0.25000000       0.25000000       0.25000000       0.25000000       0.25000000
         0.25000000       0.25000000       0.25000000       0.25000000       0.25000000       0.25000000       0.25000000       0.25000000       0.25000000       0.25000000       0.25000000
         0.25000000       0.25000000       0.25000000       0.25000000       0.25000000       0.25000000       0.25000000       0.25000000       0.25000000       0.25000000       0.25000000
         0.25000000       0.25000000       0.25000000       0.25000000       0.25000000       0.25000000       0.25000000       0.25000000       0.25000000       0.25000000       0.25000000
         0.25000000       0.25000000       0.25000000       0.25000000       0.25000000       0.25000000       0.25000000       0.25000000       0.25000000       0.25000000       0.25000000
END period  3

