# File generated by Flopy version 3.3.6 on 02/01/2024 at 17:49:00.
BEGIN options
  TIME_UNITS  years
END options

BEGIN dimensions
  NPER  4
END dimensions

BEGIN perioddata
      30.00000000  30       1.00000000
      30.00000000  30       1.00000000
      30.00000000  30       1.00000000
      30.00000000  30       1.00000000
END perioddata

