# File generated by Flopy version 3.3.6 on 02/01/2024 at 17:49:00.
BEGIN options
  BUDGET  FILEOUT  project_1.cbb
  HEAD  FILEOUT  project_1.hds
END options

BEGIN period  1
  SAVE  HEAD  ALL
  SAVE  BUDGET  ALL
  PRINT  HEAD  LAST
END period  1

