# File generated by Flopy version 3.3.6 on 04/19/2023 at 23:21:14.
BEGIN griddata
  strt  LAYERED
    INTERNAL  FACTOR  1.0
         151.00000000     151.00000000     151.00000000     151.00000000     151.00000000     151.00000000     151.00000000     151.00000000     151.00000000     151.00000000     151.00000000
         151.00000000     151.00000000     151.00000000     151.00000000     151.00000000     151.00000000     151.00000000     151.00000000     151.00000000     151.00000000     151.00000000
         151.00000000     151.00000000     151.00000000     151.00000000     151.00000000     151.00000000     151.00000000     151.00000000     151.00000000     151.00000000     151.00000000
         151.00000000     151.00000000     151.00000000     151.00000000     151.00000000     151.00000000     151.00000000     151.00000000     151.00000000     151.00000000     151.00000000
         151.00000000     151.00000000     151.00000000     151.00000000     151.00000000     151.00000000     151.00000000     151.00000000     151.00000000     151.00000000     151.00000000
         151.00000000     151.00000000     151.00000000     151.00000000     151.00000000     151.00000000     151.00000000     151.00000000     151.00000000     151.00000000     151.00000000
         151.00000000     151.00000000     151.00000000     151.00000000     151.00000000     151.00000000     151.00000000     151.00000000     151.00000000     151.00000000     151.00000000
         151.00000000     151.00000000     151.00000000     151.00000000     151.00000000     151.00000000     151.00000000     151.00000000     151.00000000     151.00000000     151.00000000
         151.00000000     151.00000000     151.00000000     151.00000000     151.00000000     151.00000000     151.00000000     151.00000000     151.00000000     151.00000000     151.00000000
         151.00000000     151.00000000     151.00000000     151.00000000     151.00000000     151.00000000     151.00000000     151.00000000     151.00000000     151.00000000     151.00000000
         151.00000000     151.00000000     151.00000000     151.00000000     151.00000000     151.00000000     151.00000000     151.00000000     151.00000000     151.00000000     151.00000000
         151.00000000     151.00000000     151.00000000     151.00000000     151.00000000     151.00000000     151.00000000     151.00000000     151.00000000     151.00000000     151.00000000
         151.00000000     151.00000000     151.00000000     151.00000000     151.00000000     151.00000000     151.00000000     151.00000000     151.00000000     151.00000000     151.00000000
         151.00000000     151.00000000     151.00000000     151.00000000     151.00000000     151.00000000     151.00000000     151.00000000     151.00000000     151.00000000     151.00000000
         151.00000000     151.00000000     151.00000000     151.00000000     151.00000000     151.00000000     151.00000000     151.00000000     151.00000000     151.00000000     151.00000000
         151.00000000     151.00000000     151.00000000     151.00000000     151.00000000     151.00000000     151.00000000     151.00000000     151.00000000     151.00000000     151.00000000
         151.00000000     151.00000000     151.00000000     151.00000000     151.00000000     151.00000000     151.00000000     151.00000000     151.00000000     151.00000000     151.00000000
         151.00000000     151.00000000     151.00000000     151.00000000     151.00000000     151.00000000     151.00000000     151.00000000     151.00000000     151.00000000     151.00000000
         151.00000000     151.00000000     151.00000000     151.00000000     151.00000000     151.00000000     151.00000000     151.00000000     151.00000000     151.00000000     151.00000000
         151.00000000     151.00000000     151.00000000     151.00000000     151.00000000     151.00000000     151.00000000     151.00000000     151.00000000     151.00000000     151.00000000
         151.00000000     151.00000000     151.00000000     151.00000000     151.00000000     151.00000000     151.00000000     151.00000000     151.00000000     151.00000000     151.00000000
         151.00000000     151.00000000     151.00000000     151.00000000     151.00000000     151.00000000     151.00000000     151.00000000     151.00000000     151.00000000     151.00000000
         151.00000000     151.00000000     151.00000000     151.00000000     151.00000000     151.00000000     151.00000000     151.00000000     151.00000000     151.00000000     151.00000000
         151.00000000     151.00000000     151.00000000     151.00000000     151.00000000     151.00000000     151.00000000     151.00000000     151.00000000     151.00000000     151.00000000
    INTERNAL  FACTOR  1.0
         151.00000000     151.00000000     151.00000000     151.00000000     151.00000000     151.00000000     151.00000000     151.00000000     151.00000000     151.00000000     151.00000000
         151.00000000     151.00000000     151.00000000     151.00000000     151.00000000     151.00000000     151.00000000     151.00000000     151.00000000     151.00000000     151.00000000
         151.00000000     151.00000000     151.00000000     151.00000000     151.00000000     151.00000000     151.00000000     151.00000000     151.00000000     151.00000000     151.00000000
         151.00000000     151.00000000     151.00000000     151.00000000     151.00000000     151.00000000     151.00000000     151.00000000     151.00000000     151.00000000     151.00000000
         151.00000000     151.00000000     151.00000000     151.00000000     151.00000000     151.00000000     151.00000000     151.00000000     151.00000000     151.00000000     151.00000000
         151.00000000     151.00000000     151.00000000     151.00000000     151.00000000     151.00000000     151.00000000     151.00000000     151.00000000     151.00000000     151.00000000
         151.00000000     151.00000000     151.00000000     151.00000000     151.00000000     151.00000000     151.00000000     151.00000000     151.00000000     151.00000000     151.00000000
         151.00000000     151.00000000     151.00000000     151.00000000     151.00000000     151.00000000     151.00000000     151.00000000     151.00000000     151.00000000     151.00000000
         151.00000000     151.00000000     151.00000000     151.00000000     151.00000000     151.00000000     151.00000000     151.00000000     151.00000000     151.00000000     151.00000000
         151.00000000     151.00000000     151.00000000     151.00000000     151.00000000     151.00000000     151.00000000     151.00000000     151.00000000     151.00000000     151.00000000
         151.00000000     151.00000000     151.00000000     151.00000000     151.00000000     151.00000000     151.00000000     151.00000000     151.00000000     151.00000000     151.00000000
         151.00000000     151.00000000     151.00000000     151.00000000     151.00000000     151.00000000     151.00000000     151.00000000     151.00000000     151.00000000     151.00000000
         151.00000000     151.00000000     151.00000000     151.00000000     151.00000000     151.00000000     151.00000000     151.00000000     151.00000000     151.00000000     151.00000000
         151.00000000     151.00000000     151.00000000     151.00000000     151.00000000     151.00000000     151.00000000     151.00000000     151.00000000     151.00000000     151.00000000
         151.00000000     151.00000000     151.00000000     151.00000000     151.00000000     151.00000000     151.00000000     151.00000000     151.00000000     151.00000000     151.00000000
         151.00000000     151.00000000     151.00000000     151.00000000     151.00000000     151.00000000     151.00000000     151.00000000     151.00000000     151.00000000     151.00000000
         151.00000000     151.00000000     151.00000000     151.00000000     151.00000000     151.00000000     151.00000000     151.00000000     151.00000000     151.00000000     151.00000000
         151.00000000     151.00000000     151.00000000     151.00000000     151.00000000     151.00000000     151.00000000     151.00000000     151.00000000     151.00000000     151.00000000
         151.00000000     151.00000000     151.00000000     151.00000000     151.00000000     151.00000000     151.00000000     151.00000000     151.00000000     151.00000000     151.00000000
         151.00000000     151.00000000     151.00000000     151.00000000     151.00000000     151.00000000     151.00000000     151.00000000     151.00000000     151.00000000     151.00000000
         151.00000000     151.00000000     151.00000000     151.00000000     151.00000000     151.00000000     151.00000000     151.00000000     151.00000000     151.00000000     151.00000000
         151.00000000     151.00000000     151.00000000     151.00000000     151.00000000     151.00000000     151.00000000     151.00000000     151.00000000     151.00000000     151.00000000
         151.00000000     151.00000000     151.00000000     151.00000000     151.00000000     151.00000000     151.00000000     151.00000000     151.00000000     151.00000000     151.00000000
         151.00000000     151.00000000     151.00000000     151.00000000     151.00000000     151.00000000     151.00000000     151.00000000     151.00000000     151.00000000     151.00000000
    INTERNAL  FACTOR  1.0
         151.00000000     151.00000000     151.00000000     151.00000000     151.00000000     151.00000000     151.00000000     151.00000000     151.00000000     151.00000000     151.00000000
         151.00000000     151.00000000     151.00000000     151.00000000     151.00000000     151.00000000     151.00000000     151.00000000     151.00000000     151.00000000     151.00000000
         151.00000000     151.00000000     151.00000000     151.00000000     151.00000000     151.00000000     151.00000000     151.00000000     151.00000000     151.00000000     151.00000000
         151.00000000     151.00000000     151.00000000     151.00000000     151.00000000     151.00000000     151.00000000     151.00000000     151.00000000     151.00000000     151.00000000
         151.00000000     151.00000000     151.00000000     151.00000000     151.00000000     151.00000000     151.00000000     151.00000000     151.00000000     151.00000000     151.00000000
         151.00000000     151.00000000     151.00000000     151.00000000     151.00000000     151.00000000     151.00000000     151.00000000     151.00000000     151.00000000     151.00000000
         151.00000000     151.00000000     151.00000000     151.00000000     151.00000000     151.00000000     151.00000000     151.00000000     151.00000000     151.00000000     151.00000000
         151.00000000     151.00000000     151.00000000     151.00000000     151.00000000     151.00000000     151.00000000     151.00000000     151.00000000     151.00000000     151.00000000
         151.00000000     151.00000000     151.00000000     151.00000000     151.00000000     151.00000000     151.00000000     151.00000000     151.00000000     151.00000000     151.00000000
         151.00000000     151.00000000     151.00000000     151.00000000     151.00000000     151.00000000     151.00000000     151.00000000     151.00000000     151.00000000     151.00000000
         151.00000000     151.00000000     151.00000000     151.00000000     151.00000000     151.00000000     151.00000000     151.00000000     151.00000000     151.00000000     151.00000000
         151.00000000     151.00000000     151.00000000     151.00000000     151.00000000     151.00000000     151.00000000     151.00000000     151.00000000     151.00000000     151.00000000
         151.00000000     151.00000000     151.00000000     151.00000000     151.00000000     151.00000000     151.00000000     151.00000000     151.00000000     151.00000000     151.00000000
         151.00000000     151.00000000     151.00000000     151.00000000     151.00000000     151.00000000     151.00000000     151.00000000     151.00000000     151.00000000     151.00000000
         151.00000000     151.00000000     151.00000000     151.00000000     151.00000000     151.00000000     151.00000000     151.00000000     151.00000000     151.00000000     151.00000000
         151.00000000     151.00000000     151.00000000     151.00000000     151.00000000     151.00000000     151.00000000     151.00000000     151.00000000     151.00000000     151.00000000
         151.00000000     151.00000000     151.00000000     151.00000000     151.00000000     151.00000000     151.00000000     151.00000000     151.00000000     151.00000000     151.00000000
         151.00000000     151.00000000     151.00000000     151.00000000     151.00000000     151.00000000     151.00000000     151.00000000     151.00000000     151.00000000     151.00000000
         151.00000000     151.00000000     151.00000000     151.00000000     151.00000000     151.00000000     151.00000000     151.00000000     151.00000000     151.00000000     151.00000000
         151.00000000     151.00000000     151.00000000     151.00000000     151.00000000     151.00000000     151.00000000     151.00000000     151.00000000     151.00000000     151.00000000
         151.00000000     151.00000000     151.00000000     151.00000000     151.00000000     151.00000000     151.00000000     151.00000000     151.00000000     151.00000000     151.00000000
         151.00000000     151.00000000     151.00000000     151.00000000     151.00000000     151.00000000     151.00000000     151.00000000     151.00000000     151.00000000     151.00000000
         151.00000000     151.00000000     151.00000000     151.00000000     151.00000000     151.00000000     151.00000000     151.00000000     151.00000000     151.00000000     151.00000000
         151.00000000     151.00000000     151.00000000     151.00000000     151.00000000     151.00000000     151.00000000     151.00000000     151.00000000     151.00000000     151.00000000
    INTERNAL  FACTOR  1.0
         151.00000000     151.00000000     151.00000000     151.00000000     151.00000000     151.00000000     151.00000000     151.00000000     151.00000000     151.00000000     151.00000000
         151.00000000     151.00000000     151.00000000     151.00000000     151.00000000     151.00000000     151.00000000     151.00000000     151.00000000     151.00000000     151.00000000
         151.00000000     151.00000000     151.00000000     151.00000000     151.00000000     151.00000000     151.00000000     151.00000000     151.00000000     151.00000000     151.00000000
         151.00000000     151.00000000     151.00000000     151.00000000     151.00000000     151.00000000     151.00000000     151.00000000     151.00000000     151.00000000     151.00000000
         151.00000000     151.00000000     151.00000000     151.00000000     151.00000000     151.00000000     151.00000000     151.00000000     151.00000000     151.00000000     151.00000000
         151.00000000     151.00000000     151.00000000     151.00000000     151.00000000     151.00000000     151.00000000     151.00000000     151.00000000     151.00000000     151.00000000
         151.00000000     151.00000000     151.00000000     151.00000000     151.00000000     151.00000000     151.00000000     151.00000000     151.00000000     151.00000000     151.00000000
         151.00000000     151.00000000     151.00000000     151.00000000     151.00000000     151.00000000     151.00000000     151.00000000     151.00000000     151.00000000     151.00000000
         151.00000000     151.00000000     151.00000000     151.00000000     151.00000000     151.00000000     151.00000000     151.00000000     151.00000000     151.00000000     151.00000000
         151.00000000     151.00000000     151.00000000     151.00000000     151.00000000     151.00000000     151.00000000     151.00000000     151.00000000     151.00000000     151.00000000
         151.00000000     151.00000000     151.00000000     151.00000000     151.00000000     151.00000000     151.00000000     151.00000000     151.00000000     151.00000000     151.00000000
         151.00000000     151.00000000     151.00000000     151.00000000     151.00000000     151.00000000     151.00000000     151.00000000     151.00000000     151.00000000     151.00000000
         151.00000000     151.00000000     151.00000000     151.00000000     151.00000000     151.00000000     151.00000000     151.00000000     151.00000000     151.00000000     151.00000000
         151.00000000     151.00000000     151.00000000     151.00000000     151.00000000     151.00000000     151.00000000     151.00000000     151.00000000     151.00000000     151.00000000
         151.00000000     151.00000000     151.00000000     151.00000000     151.00000000     151.00000000     151.00000000     151.00000000     151.00000000     151.00000000     151.00000000
         151.00000000     151.00000000     151.00000000     151.00000000     151.00000000     151.00000000     151.00000000     151.00000000     151.00000000     151.00000000     151.00000000
         151.00000000     151.00000000     151.00000000     151.00000000     151.00000000     151.00000000     151.00000000     151.00000000     151.00000000     151.00000000     151.00000000
         151.00000000     151.00000000     151.00000000     151.00000000     151.00000000     151.00000000     151.00000000     151.00000000     151.00000000     151.00000000     151.00000000
         151.00000000     151.00000000     151.00000000     151.00000000     151.00000000     151.00000000     151.00000000     151.00000000     151.00000000     151.00000000     151.00000000
         151.00000000     151.00000000     151.00000000     151.00000000     151.00000000     151.00000000     151.00000000     151.00000000     151.00000000     151.00000000     151.00000000
         151.00000000     151.00000000     151.00000000     151.00000000     151.00000000     151.00000000     151.00000000     151.00000000     151.00000000     151.00000000     151.00000000
         151.00000000     151.00000000     151.00000000     151.00000000     151.00000000     151.00000000     151.00000000     151.00000000     151.00000000     151.00000000     151.00000000
         151.00000000     151.00000000     151.00000000     151.00000000     151.00000000     151.00000000     151.00000000     151.00000000     151.00000000     151.00000000     151.00000000
         151.00000000     151.00000000     151.00000000     151.00000000     151.00000000     151.00000000     151.00000000     151.00000000     151.00000000     151.00000000     151.00000000
    INTERNAL  FACTOR  1.0
         151.00000000     151.00000000     151.00000000     151.00000000     151.00000000     151.00000000     151.00000000     151.00000000     151.00000000     151.00000000     151.00000000
         151.00000000     151.00000000     151.00000000     151.00000000     151.00000000     151.00000000     151.00000000     151.00000000     151.00000000     151.00000000     151.00000000
         151.00000000     151.00000000     151.00000000     151.00000000     151.00000000     151.00000000     151.00000000     151.00000000     151.00000000     151.00000000     151.00000000
         151.00000000     151.00000000     151.00000000     151.00000000     151.00000000     151.00000000     151.00000000     151.00000000     151.00000000     151.00000000     151.00000000
         151.00000000     151.00000000     151.00000000     151.00000000     151.00000000     151.00000000     151.00000000     151.00000000     151.00000000     151.00000000     151.00000000
         151.00000000     151.00000000     151.00000000     151.00000000     151.00000000     151.00000000     151.00000000     151.00000000     151.00000000     151.00000000     151.00000000
         151.00000000     151.00000000     151.00000000     151.00000000     151.00000000     151.00000000     151.00000000     151.00000000     151.00000000     151.00000000     151.00000000
         151.00000000     151.00000000     151.00000000     151.00000000     151.00000000     151.00000000     151.00000000     151.00000000     151.00000000     151.00000000     151.00000000
         151.00000000     151.00000000     151.00000000     151.00000000     151.00000000     151.00000000     151.00000000     151.00000000     151.00000000     151.00000000     151.00000000
         151.00000000     151.00000000     151.00000000     151.00000000     151.00000000     151.00000000     151.00000000     151.00000000     151.00000000     151.00000000     151.00000000
         151.00000000     151.00000000     151.00000000     151.00000000     151.00000000     151.00000000     151.00000000     151.00000000     151.00000000     151.00000000     151.00000000
         151.00000000     151.00000000     151.00000000     151.00000000     151.00000000     151.00000000     151.00000000     151.00000000     151.00000000     151.00000000     151.00000000
         151.00000000     151.00000000     151.00000000     151.00000000     151.00000000     151.00000000     151.00000000     151.00000000     151.00000000     151.00000000     151.00000000
         151.00000000     151.00000000     151.00000000     151.00000000     151.00000000     151.00000000     151.00000000     151.00000000     151.00000000     151.00000000     151.00000000
         151.00000000     151.00000000     151.00000000     151.00000000     151.00000000     151.00000000     151.00000000     151.00000000     151.00000000     151.00000000     151.00000000
         151.00000000     151.00000000     151.00000000     151.00000000     151.00000000     151.00000000     151.00000000     151.00000000     151.00000000     151.00000000     151.00000000
         151.00000000     151.00000000     151.00000000     151.00000000     151.00000000     151.00000000     151.00000000     151.00000000     151.00000000     151.00000000     151.00000000
         151.00000000     151.00000000     151.00000000     151.00000000     151.00000000     151.00000000     151.00000000     151.00000000     151.00000000     151.00000000     151.00000000
         151.00000000     151.00000000     151.00000000     151.00000000     151.00000000     151.00000000     151.00000000     151.00000000     151.00000000     151.00000000     151.00000000
         151.00000000     151.00000000     151.00000000     151.00000000     151.00000000     151.00000000     151.00000000     151.00000000     151.00000000     151.00000000     151.00000000
         151.00000000     151.00000000     151.00000000     151.00000000     151.00000000     151.00000000     151.00000000     151.00000000     151.00000000     151.00000000     151.00000000
         151.00000000     151.00000000     151.00000000     151.00000000     151.00000000     151.00000000     151.00000000     151.00000000     151.00000000     151.00000000     151.00000000
         151.00000000     151.00000000     151.00000000     151.00000000     151.00000000     151.00000000     151.00000000     151.00000000     151.00000000     151.00000000     151.00000000
         151.00000000     151.00000000     151.00000000     151.00000000     151.00000000     151.00000000     151.00000000     151.00000000     151.00000000     151.00000000     151.00000000
END griddata

