# File generated by Flopy version 3.3.6 on 02/01/2024 at 17:49:00.
BEGIN options
END options

BEGIN dimensions
  MAXBOUND  6
END dimensions

BEGIN period  1
  1 22 6      -0.01000000
  2 22 6      -0.01000000
  4 15 7      -0.01000000
  5 15 7      -0.01000000
  4 5 7      -0.01000000
  5 5 7      -0.01000000
END period  1

BEGIN period  2
  1 22 6  -5.00000000E+06
  2 22 6  -5.00000000E+06
  4 15 7      -0.10000000
  5 15 7      -0.10000000
  4 5 7      -0.10000000
  5 5 7      -0.10000000
END period  2

BEGIN period  3
  1 22 6  -5.00000000E+06
  2 22 6  -5.00000000E+06
  4 15 7  -8.00000000E+06
  5 15 7  -8.00000000E+06
  4 5 7      -0.10000000
  5 5 7      -0.10000000
END period  3

BEGIN period  4
  1 22 6  -5.00000000E+06
  2 22 6  -5.00000000E+06
  4 15 7  -8.00000000E+06
  5 15 7  -8.00000000E+06
  4 5 7  -3.00000000E+06
  5 5 7  -5.00000000E+06
END period  4

