# File generated by Flopy version 3.3.6 on 02/01/2024 at 17:49:00.
BEGIN options
END options

BEGIN packages
  DIS6  project_1.dis  dis
  IC6  project_1.ic  ic
  NPF6  project_1.npf  npf
  STO6  project_1.sto  sto
  CHD6  project_1.chd  chd_0
  WEL6  project_1.wel  wel_0
  RCH6  project_1.rcha  rcha_0
  OC6  project_1.oc  oc
END packages

