# File generated by Flopy version 3.3.6 on 04/19/2023 at 23:21:14.
BEGIN options
  COMPLEXITY  simple
END options

