# File generated by Flopy version 3.3.6 on 12/07/2022 at 20:40:02.
BEGIN griddata
  strt
    CONSTANT       7.50000000
END griddata

