# File generated by Flopy version 3.3.6 on 12/07/2022 at 20:40:36.
BEGIN options
  NEWTON
END options

BEGIN packages
  DIS6  ex-gwf-zaidel.dis  dis
  NPF6  ex-gwf-zaidel.npf  npf
  IC6  ex-gwf-zaidel.ic  ic
  CHD6  ex-gwf-zaidel.chd  chd_0
  OC6  ex-gwf-zaidel.oc  oc
END packages

