# File generated by Flopy version 3.3.6 on 12/07/2022 at 20:40:36.
BEGIN options
  HEAD  FILEOUT  ex-gwf-zaidel.hds
END options

BEGIN period  1
  SAVE  HEAD  ALL
END period  1

