# File generated by Flopy version 3.3.6 on 12/07/2022 at 20:40:19.
BEGIN options
END options

BEGIN timing
  TDIS6  ex-gwf-lgrv-gc.tdis
END timing

BEGIN models
  gwf6  parent.nam  parent
END models

BEGIN exchanges
END exchanges

BEGIN solutiongroup  1
  ims6  ex-gwf-lgrv-gc.ims  parent
END solutiongroup  1

