# File generated by Flopy version 3.3.6 on 12/07/2022 at 20:40:19.
BEGIN options
  SAVE_FLOWS
END options

BEGIN packages
  DIS6  parent.dis  dis
  NPF6  parent.npf  npf
  IC6  parent.ic  ic
  RIV6  parent.riv  riv
  RCH6  parent.rcha  rch
  OC6  parent.oc  oc
END packages

