# File generated by Flopy version 3.3.6 on 12/07/2022 at 20:41:34.
BEGIN options
  SAVE_SPECIFIC_DISCHARGE
END options

BEGIN griddata
  icelltype
    CONSTANT  0
  k
    CONSTANT  1.00000000E-04
END griddata

