# File generated by Flopy version 3.3.6 on 12/07/2022 at 20:41:34.
BEGIN options
  TIME_UNITS  seconds
END options

BEGIN dimensions
  NPER  600
END dimensions

BEGIN perioddata
  5.25600000E+05  6       1.00000000
  5.25600000E+05  6       1.00000000
  5.25600000E+05  6       1.00000000
  5.25600000E+05  6       1.00000000
  5.25600000E+05  6       1.00000000
  5.25600000E+05  6       1.00000000
  5.25600000E+05  6       1.00000000
  5.25600000E+05  6       1.00000000
  5.25600000E+05  6       1.00000000
  5.25600000E+05  6       1.00000000
  5.25600000E+05  6       1.00000000
  5.25600000E+05  6       1.00000000
  5.25600000E+05  6       1.00000000
  5.25600000E+05  6       1.00000000
  5.25600000E+05  6       1.00000000
  5.25600000E+05  6       1.00000000
  5.25600000E+05  6       1.00000000
  5.25600000E+05  6       1.00000000
  5.25600000E+05  6       1.00000000
  5.25600000E+05  6       1.00000000
  5.25600000E+05  6       1.00000000
  5.25600000E+05  6       1.00000000
  5.25600000E+05  6       1.00000000
  5.25600000E+05  6       1.00000000
  5.25600000E+05  6       1.00000000
  5.25600000E+05  6       1.00000000
  5.25600000E+05  6       1.00000000
  5.25600000E+05  6       1.00000000
  5.25600000E+05  6       1.00000000
  5.25600000E+05  6       1.00000000
  5.25600000E+05  6       1.00000000
  5.25600000E+05  6       1.00000000
  5.25600000E+05  6       1.00000000
  5.25600000E+05  6       1.00000000
  5.25600000E+05  6       1.00000000
  5.25600000E+05  6       1.00000000
  5.25600000E+05  6       1.00000000
  5.25600000E+05  6       1.00000000
  5.25600000E+05  6       1.00000000
  5.25600000E+05  6       1.00000000
  5.25600000E+05  6       1.00000000
  5.25600000E+05  6       1.00000000
  5.25600000E+05  6       1.00000000
  5.25600000E+05  6       1.00000000
  5.25600000E+05  6       1.00000000
  5.25600000E+05  6       1.00000000
  5.25600000E+05  6       1.00000000
  5.25600000E+05  6       1.00000000
  5.25600000E+05  6       1.00000000
  5.25600000E+05  6       1.00000000
  5.25600000E+05  6       1.00000000
  5.25600000E+05  6       1.00000000
  5.25600000E+05  6       1.00000000
  5.25600000E+05  6       1.00000000
  5.25600000E+05  6       1.00000000
  5.25600000E+05  6       1.00000000
  5.25600000E+05  6       1.00000000
  5.25600000E+05  6       1.00000000
  5.25600000E+05  6       1.00000000
  5.25600000E+05  6       1.00000000
  5.25600000E+05  6       1.00000000
  5.25600000E+05  6       1.00000000
  5.25600000E+05  6       1.00000000
  5.25600000E+05  6       1.00000000
  5.25600000E+05  6       1.00000000
  5.25600000E+05  6       1.00000000
  5.25600000E+05  6       1.00000000
  5.25600000E+05  6       1.00000000
  5.25600000E+05  6       1.00000000
  5.25600000E+05  6       1.00000000
  5.25600000E+05  6       1.00000000
  5.25600000E+05  6       1.00000000
  5.25600000E+05  6       1.00000000
  5.25600000E+05  6       1.00000000
  5.25600000E+05  6       1.00000000
  5.25600000E+05  6       1.00000000
  5.25600000E+05  6       1.00000000
  5.25600000E+05  6       1.00000000
  5.25600000E+05  6       1.00000000
  5.25600000E+05  6       1.00000000
  5.25600000E+05  6       1.00000000
  5.25600000E+05  6       1.00000000
  5.25600000E+05  6       1.00000000
  5.25600000E+05  6       1.00000000
  5.25600000E+05  6       1.00000000
  5.25600000E+05  6       1.00000000
  5.25600000E+05  6       1.00000000
  5.25600000E+05  6       1.00000000
  5.25600000E+05  6       1.00000000
  5.25600000E+05  6       1.00000000
  5.25600000E+05  6       1.00000000
  5.25600000E+05  6       1.00000000
  5.25600000E+05  6       1.00000000
  5.25600000E+05  6       1.00000000
  5.25600000E+05  6       1.00000000
  5.25600000E+05  6       1.00000000
  5.25600000E+05  6       1.00000000
  5.25600000E+05  6       1.00000000
  5.25600000E+05  6       1.00000000
  5.25600000E+05  6       1.00000000
  5.25600000E+05  6       1.00000000
  5.25600000E+05  6       1.00000000
  5.25600000E+05  6       1.00000000
  5.25600000E+05  6       1.00000000
  5.25600000E+05  6       1.00000000
  5.25600000E+05  6       1.00000000
  5.25600000E+05  6       1.00000000
  5.25600000E+05  6       1.00000000
  5.25600000E+05  6       1.00000000
  5.25600000E+05  6       1.00000000
  5.25600000E+05  6       1.00000000
  5.25600000E+05  6       1.00000000
  5.25600000E+05  6       1.00000000
  5.25600000E+05  6       1.00000000
  5.25600000E+05  6       1.00000000
  5.25600000E+05  6       1.00000000
  5.25600000E+05  6       1.00000000
  5.25600000E+05  6       1.00000000
  5.25600000E+05  6       1.00000000
  5.25600000E+05  6       1.00000000
  5.25600000E+05  6       1.00000000
  5.25600000E+05  6       1.00000000
  5.25600000E+05  6       1.00000000
  5.25600000E+05  6       1.00000000
  5.25600000E+05  6       1.00000000
  5.25600000E+05  6       1.00000000
  5.25600000E+05  6       1.00000000
  5.25600000E+05  6       1.00000000
  5.25600000E+05  6       1.00000000
  5.25600000E+05  6       1.00000000
  5.25600000E+05  6       1.00000000
  5.25600000E+05  6       1.00000000
  5.25600000E+05  6       1.00000000
  5.25600000E+05  6       1.00000000
  5.25600000E+05  6       1.00000000
  5.25600000E+05  6       1.00000000
  5.25600000E+05  6       1.00000000
  5.25600000E+05  6       1.00000000
  5.25600000E+05  6       1.00000000
  5.25600000E+05  6       1.00000000
  5.25600000E+05  6       1.00000000
  5.25600000E+05  6       1.00000000
  5.25600000E+05  6       1.00000000
  5.25600000E+05  6       1.00000000
  5.25600000E+05  6       1.00000000
  5.25600000E+05  6       1.00000000
  5.25600000E+05  6       1.00000000
  5.25600000E+05  6       1.00000000
  5.25600000E+05  6       1.00000000
  5.25600000E+05  6       1.00000000
  5.25600000E+05  6       1.00000000
  5.25600000E+05  6       1.00000000
  5.25600000E+05  6       1.00000000
  5.25600000E+05  6       1.00000000
  5.25600000E+05  6       1.00000000
  5.25600000E+05  6       1.00000000
  5.25600000E+05  6       1.00000000
  5.25600000E+05  6       1.00000000
  5.25600000E+05  6       1.00000000
  5.25600000E+05  6       1.00000000
  5.25600000E+05  6       1.00000000
  5.25600000E+05  6       1.00000000
  5.25600000E+05  6       1.00000000
  5.25600000E+05  6       1.00000000
  5.25600000E+05  6       1.00000000
  5.25600000E+05  6       1.00000000
  5.25600000E+05  6       1.00000000
  5.25600000E+05  6       1.00000000
  5.25600000E+05  6       1.00000000
  5.25600000E+05  6       1.00000000
  5.25600000E+05  6       1.00000000
  5.25600000E+05  6       1.00000000
  5.25600000E+05  6       1.00000000
  5.25600000E+05  6       1.00000000
  5.25600000E+05  6       1.00000000
  5.25600000E+05  6       1.00000000
  5.25600000E+05  6       1.00000000
  5.25600000E+05  6       1.00000000
  5.25600000E+05  6       1.00000000
  5.25600000E+05  6       1.00000000
  5.25600000E+05  6       1.00000000
  5.25600000E+05  6       1.00000000
  5.25600000E+05  6       1.00000000
  5.25600000E+05  6       1.00000000
  5.25600000E+05  6       1.00000000
  5.25600000E+05  6       1.00000000
  5.25600000E+05  6       1.00000000
  5.25600000E+05  6       1.00000000
  5.25600000E+05  6       1.00000000
  5.25600000E+05  6       1.00000000
  5.25600000E+05  6       1.00000000
  5.25600000E+05  6       1.00000000
  5.25600000E+05  6       1.00000000
  5.25600000E+05  6       1.00000000
  5.25600000E+05  6       1.00000000
  5.25600000E+05  6       1.00000000
  5.25600000E+05  6       1.00000000
  5.25600000E+05  6       1.00000000
  5.25600000E+05  6       1.00000000
  5.25600000E+05  6       1.00000000
  5.25600000E+05  6       1.00000000
  5.25600000E+05  6       1.00000000
  5.25600000E+05  6       1.00000000
  5.25600000E+05  6       1.00000000
  5.25600000E+05  6       1.00000000
  5.25600000E+05  6       1.00000000
  5.25600000E+05  6       1.00000000
  5.25600000E+05  6       1.00000000
  5.25600000E+05  6       1.00000000
  5.25600000E+05  6       1.00000000
  5.25600000E+05  6       1.00000000
  5.25600000E+05  6       1.00000000
  5.25600000E+05  6       1.00000000
  5.25600000E+05  6       1.00000000
  5.25600000E+05  6       1.00000000
  5.25600000E+05  6       1.00000000
  5.25600000E+05  6       1.00000000
  5.25600000E+05  6       1.00000000
  5.25600000E+05  6       1.00000000
  5.25600000E+05  6       1.00000000
  5.25600000E+05  6       1.00000000
  5.25600000E+05  6       1.00000000
  5.25600000E+05  6       1.00000000
  5.25600000E+05  6       1.00000000
  5.25600000E+05  6       1.00000000
  5.25600000E+05  6       1.00000000
  5.25600000E+05  6       1.00000000
  5.25600000E+05  6       1.00000000
  5.25600000E+05  6       1.00000000
  5.25600000E+05  6       1.00000000
  5.25600000E+05  6       1.00000000
  5.25600000E+05  6       1.00000000
  5.25600000E+05  6       1.00000000
  5.25600000E+05  6       1.00000000
  5.25600000E+05  6       1.00000000
  5.25600000E+05  6       1.00000000
  5.25600000E+05  6       1.00000000
  5.25600000E+05  6       1.00000000
  5.25600000E+05  6       1.00000000
  5.25600000E+05  6       1.00000000
  5.25600000E+05  6       1.00000000
  5.25600000E+05  6       1.00000000
  5.25600000E+05  6       1.00000000
  5.25600000E+05  6       1.00000000
  5.25600000E+05  6       1.00000000
  5.25600000E+05  6       1.00000000
  5.25600000E+05  6       1.00000000
  5.25600000E+05  6       1.00000000
  5.25600000E+05  6       1.00000000
  5.25600000E+05  6       1.00000000
  5.25600000E+05  6       1.00000000
  5.25600000E+05  6       1.00000000
  5.25600000E+05  6       1.00000000
  5.25600000E+05  6       1.00000000
  5.25600000E+05  6       1.00000000
  5.25600000E+05  6       1.00000000
  5.25600000E+05  6       1.00000000
  5.25600000E+05  6       1.00000000
  5.25600000E+05  6       1.00000000
  5.25600000E+05  6       1.00000000
  5.25600000E+05  6       1.00000000
  5.25600000E+05  6       1.00000000
  5.25600000E+05  6       1.00000000
  5.25600000E+05  6       1.00000000
  5.25600000E+05  6       1.00000000
  5.25600000E+05  6       1.00000000
  5.25600000E+05  6       1.00000000
  5.25600000E+05  6       1.00000000
  5.25600000E+05  6       1.00000000
  5.25600000E+05  6       1.00000000
  5.25600000E+05  6       1.00000000
  5.25600000E+05  6       1.00000000
  5.25600000E+05  6       1.00000000
  5.25600000E+05  6       1.00000000
  5.25600000E+05  6       1.00000000
  5.25600000E+05  6       1.00000000
  5.25600000E+05  6       1.00000000
  5.25600000E+05  6       1.00000000
  5.25600000E+05  6       1.00000000
  5.25600000E+05  6       1.00000000
  5.25600000E+05  6       1.00000000
  5.25600000E+05  6       1.00000000
  5.25600000E+05  6       1.00000000
  5.25600000E+05  6       1.00000000
  5.25600000E+05  6       1.00000000
  5.25600000E+05  6       1.00000000
  5.25600000E+05  6       1.00000000
  5.25600000E+05  6       1.00000000
  5.25600000E+05  6       1.00000000
  5.25600000E+05  6       1.00000000
  5.25600000E+05  6       1.00000000
  5.25600000E+05  6       1.00000000
  5.25600000E+05  6       1.00000000
  5.25600000E+05  6       1.00000000
  5.25600000E+05  6       1.00000000
  5.25600000E+05  6       1.00000000
  5.25600000E+05  6       1.00000000
  5.25600000E+05  6       1.00000000
  5.25600000E+05  6       1.00000000
  5.25600000E+05  6       1.00000000
  5.25600000E+05  6       1.00000000
  5.25600000E+05  6       1.00000000
  5.25600000E+05  6       1.00000000
  5.25600000E+05  6       1.00000000
  5.25600000E+05  6       1.00000000
  5.25600000E+05  6       1.00000000
  5.25600000E+05  6       1.00000000
  5.25600000E+05  6       1.00000000
  5.25600000E+05  6       1.00000000
  5.25600000E+05  6       1.00000000
  5.25600000E+05  6       1.00000000
  5.25600000E+05  6       1.00000000
  5.25600000E+05  6       1.00000000
  5.25600000E+05  6       1.00000000
  5.25600000E+05  6       1.00000000
  5.25600000E+05  6       1.00000000
  5.25600000E+05  6       1.00000000
  5.25600000E+05  6       1.00000000
  5.25600000E+05  6       1.00000000
  5.25600000E+05  6       1.00000000
  5.25600000E+05  6       1.00000000
  5.25600000E+05  6       1.00000000
  5.25600000E+05  6       1.00000000
  5.25600000E+05  6       1.00000000
  5.25600000E+05  6       1.00000000
  5.25600000E+05  6       1.00000000
  5.25600000E+05  6       1.00000000
  5.25600000E+05  6       1.00000000
  5.25600000E+05  6       1.00000000
  5.25600000E+05  6       1.00000000
  5.25600000E+05  6       1.00000000
  5.25600000E+05  6       1.00000000
  5.25600000E+05  6       1.00000000
  5.25600000E+05  6       1.00000000
  5.25600000E+05  6       1.00000000
  5.25600000E+05  6       1.00000000
  5.25600000E+05  6       1.00000000
  5.25600000E+05  6       1.00000000
  5.25600000E+05  6       1.00000000
  5.25600000E+05  6       1.00000000
  5.25600000E+05  6       1.00000000
  5.25600000E+05  6       1.00000000
  5.25600000E+05  6       1.00000000
  5.25600000E+05  6       1.00000000
  5.25600000E+05  6       1.00000000
  5.25600000E+05  6       1.00000000
  5.25600000E+05  6       1.00000000
  5.25600000E+05  6       1.00000000
  5.25600000E+05  6       1.00000000
  5.25600000E+05  6       1.00000000
  5.25600000E+05  6       1.00000000
  5.25600000E+05  6       1.00000000
  5.25600000E+05  6       1.00000000
  5.25600000E+05  6       1.00000000
  5.25600000E+05  6       1.00000000
  5.25600000E+05  6       1.00000000
  5.25600000E+05  6       1.00000000
  5.25600000E+05  6       1.00000000
  5.25600000E+05  6       1.00000000
  5.25600000E+05  6       1.00000000
  5.25600000E+05  6       1.00000000
  5.25600000E+05  6       1.00000000
  5.25600000E+05  6       1.00000000
  5.25600000E+05  6       1.00000000
  5.25600000E+05  6       1.00000000
  5.25600000E+05  6       1.00000000
  5.25600000E+05  6       1.00000000
  5.25600000E+05  6       1.00000000
  5.25600000E+05  6       1.00000000
  5.25600000E+05  6       1.00000000
  5.25600000E+05  6       1.00000000
  5.25600000E+05  6       1.00000000
  5.25600000E+05  6       1.00000000
  5.25600000E+05  6       1.00000000
  5.25600000E+05  6       1.00000000
  5.25600000E+05  6       1.00000000
  5.25600000E+05  6       1.00000000
  5.25600000E+05  6       1.00000000
  5.25600000E+05  6       1.00000000
  5.25600000E+05  6       1.00000000
  5.25600000E+05  6       1.00000000
  5.25600000E+05  6       1.00000000
  5.25600000E+05  6       1.00000000
  5.25600000E+05  6       1.00000000
  5.25600000E+05  6       1.00000000
  5.25600000E+05  6       1.00000000
  5.25600000E+05  6       1.00000000
  5.25600000E+05  6       1.00000000
  5.25600000E+05  6       1.00000000
  5.25600000E+05  6       1.00000000
  5.25600000E+05  6       1.00000000
  5.25600000E+05  6       1.00000000
  5.25600000E+05  6       1.00000000
  5.25600000E+05  6       1.00000000
  5.25600000E+05  6       1.00000000
  5.25600000E+05  6       1.00000000
  5.25600000E+05  6       1.00000000
  5.25600000E+05  6       1.00000000
  5.25600000E+05  6       1.00000000
  5.25600000E+05  6       1.00000000
  5.25600000E+05  6       1.00000000
  5.25600000E+05  6       1.00000000
  5.25600000E+05  6       1.00000000
  5.25600000E+05  6       1.00000000
  5.25600000E+05  6       1.00000000
  5.25600000E+05  6       1.00000000
  5.25600000E+05  6       1.00000000
  5.25600000E+05  6       1.00000000
  5.25600000E+05  6       1.00000000
  5.25600000E+05  6       1.00000000
  5.25600000E+05  6       1.00000000
  5.25600000E+05  6       1.00000000
  5.25600000E+05  6       1.00000000
  5.25600000E+05  6       1.00000000
  5.25600000E+05  6       1.00000000
  5.25600000E+05  6       1.00000000
  5.25600000E+05  6       1.00000000
  5.25600000E+05  6       1.00000000
  5.25600000E+05  6       1.00000000
  5.25600000E+05  6       1.00000000
  5.25600000E+05  6       1.00000000
  5.25600000E+05  6       1.00000000
  5.25600000E+05  6       1.00000000
  5.25600000E+05  6       1.00000000
  5.25600000E+05  6       1.00000000
  5.25600000E+05  6       1.00000000
  5.25600000E+05  6       1.00000000
  5.25600000E+05  6       1.00000000
  5.25600000E+05  6       1.00000000
  5.25600000E+05  6       1.00000000
  5.25600000E+05  6       1.00000000
  5.25600000E+05  6       1.00000000
  5.25600000E+05  6       1.00000000
  5.25600000E+05  6       1.00000000
  5.25600000E+05  6       1.00000000
  5.25600000E+05  6       1.00000000
  5.25600000E+05  6       1.00000000
  5.25600000E+05  6       1.00000000
  5.25600000E+05  6       1.00000000
  5.25600000E+05  6       1.00000000
  5.25600000E+05  6       1.00000000
  5.25600000E+05  6       1.00000000
  5.25600000E+05  6       1.00000000
  5.25600000E+05  6       1.00000000
  5.25600000E+05  6       1.00000000
  5.25600000E+05  6       1.00000000
  5.25600000E+05  6       1.00000000
  5.25600000E+05  6       1.00000000
  5.25600000E+05  6       1.00000000
  5.25600000E+05  6       1.00000000
  5.25600000E+05  6       1.00000000
  5.25600000E+05  6       1.00000000
  5.25600000E+05  6       1.00000000
  5.25600000E+05  6       1.00000000
  5.25600000E+05  6       1.00000000
  5.25600000E+05  6       1.00000000
  5.25600000E+05  6       1.00000000
  5.25600000E+05  6       1.00000000
  5.25600000E+05  6       1.00000000
  5.25600000E+05  6       1.00000000
  5.25600000E+05  6       1.00000000
  5.25600000E+05  6       1.00000000
  5.25600000E+05  6       1.00000000
  5.25600000E+05  6       1.00000000
  5.25600000E+05  6       1.00000000
  5.25600000E+05  6       1.00000000
  5.25600000E+05  6       1.00000000
  5.25600000E+05  6       1.00000000
  5.25600000E+05  6       1.00000000
  5.25600000E+05  6       1.00000000
  5.25600000E+05  6       1.00000000
  5.25600000E+05  6       1.00000000
  5.25600000E+05  6       1.00000000
  5.25600000E+05  6       1.00000000
  5.25600000E+05  6       1.00000000
  5.25600000E+05  6       1.00000000
  5.25600000E+05  6       1.00000000
  5.25600000E+05  6       1.00000000
  5.25600000E+05  6       1.00000000
  5.25600000E+05  6       1.00000000
  5.25600000E+05  6       1.00000000
  5.25600000E+05  6       1.00000000
  5.25600000E+05  6       1.00000000
  5.25600000E+05  6       1.00000000
  5.25600000E+05  6       1.00000000
  5.25600000E+05  6       1.00000000
  5.25600000E+05  6       1.00000000
  5.25600000E+05  6       1.00000000
  5.25600000E+05  6       1.00000000
  5.25600000E+05  6       1.00000000
  5.25600000E+05  6       1.00000000
  5.25600000E+05  6       1.00000000
  5.25600000E+05  6       1.00000000
  5.25600000E+05  6       1.00000000
  5.25600000E+05  6       1.00000000
  5.25600000E+05  6       1.00000000
  5.25600000E+05  6       1.00000000
  5.25600000E+05  6       1.00000000
  5.25600000E+05  6       1.00000000
  5.25600000E+05  6       1.00000000
  5.25600000E+05  6       1.00000000
  5.25600000E+05  6       1.00000000
  5.25600000E+05  6       1.00000000
  5.25600000E+05  6       1.00000000
  5.25600000E+05  6       1.00000000
  5.25600000E+05  6       1.00000000
  5.25600000E+05  6       1.00000000
  5.25600000E+05  6       1.00000000
  5.25600000E+05  6       1.00000000
  5.25600000E+05  6       1.00000000
  5.25600000E+05  6       1.00000000
  5.25600000E+05  6       1.00000000
  5.25600000E+05  6       1.00000000
  5.25600000E+05  6       1.00000000
  5.25600000E+05  6       1.00000000
  5.25600000E+05  6       1.00000000
  5.25600000E+05  6       1.00000000
  5.25600000E+05  6       1.00000000
  5.25600000E+05  6       1.00000000
  5.25600000E+05  6       1.00000000
  5.25600000E+05  6       1.00000000
  5.25600000E+05  6       1.00000000
  5.25600000E+05  6       1.00000000
  5.25600000E+05  6       1.00000000
  5.25600000E+05  6       1.00000000
  5.25600000E+05  6       1.00000000
  5.25600000E+05  6       1.00000000
  5.25600000E+05  6       1.00000000
  5.25600000E+05  6       1.00000000
  5.25600000E+05  6       1.00000000
  5.25600000E+05  6       1.00000000
  5.25600000E+05  6       1.00000000
  5.25600000E+05  6       1.00000000
  5.25600000E+05  6       1.00000000
  5.25600000E+05  6       1.00000000
  5.25600000E+05  6       1.00000000
  5.25600000E+05  6       1.00000000
  5.25600000E+05  6       1.00000000
  5.25600000E+05  6       1.00000000
  5.25600000E+05  6       1.00000000
  5.25600000E+05  6       1.00000000
  5.25600000E+05  6       1.00000000
  5.25600000E+05  6       1.00000000
  5.25600000E+05  6       1.00000000
  5.25600000E+05  6       1.00000000
  5.25600000E+05  6       1.00000000
  5.25600000E+05  6       1.00000000
  5.25600000E+05  6       1.00000000
  5.25600000E+05  6       1.00000000
  5.25600000E+05  6       1.00000000
  5.25600000E+05  6       1.00000000
  5.25600000E+05  6       1.00000000
  5.25600000E+05  6       1.00000000
  5.25600000E+05  6       1.00000000
  5.25600000E+05  6       1.00000000
  5.25600000E+05  6       1.00000000
  5.25600000E+05  6       1.00000000
  5.25600000E+05  6       1.00000000
  5.25600000E+05  6       1.00000000
  5.25600000E+05  6       1.00000000
  5.25600000E+05  6       1.00000000
  5.25600000E+05  6       1.00000000
  5.25600000E+05  6       1.00000000
  5.25600000E+05  6       1.00000000
  5.25600000E+05  6       1.00000000
  5.25600000E+05  6       1.00000000
  5.25600000E+05  6       1.00000000
  5.25600000E+05  6       1.00000000
  5.25600000E+05  6       1.00000000
  5.25600000E+05  6       1.00000000
  5.25600000E+05  6       1.00000000
  5.25600000E+05  6       1.00000000
  5.25600000E+05  6       1.00000000
  5.25600000E+05  6       1.00000000
  5.25600000E+05  6       1.00000000
  5.25600000E+05  6       1.00000000
  5.25600000E+05  6       1.00000000
  5.25600000E+05  6       1.00000000
  5.25600000E+05  6       1.00000000
  5.25600000E+05  6       1.00000000
  5.25600000E+05  6       1.00000000
  5.25600000E+05  6       1.00000000
  5.25600000E+05  6       1.00000000
  5.25600000E+05  6       1.00000000
  5.25600000E+05  6       1.00000000
  5.25600000E+05  6       1.00000000
  5.25600000E+05  6       1.00000000
  5.25600000E+05  6       1.00000000
  5.25600000E+05  6       1.00000000
  5.25600000E+05  6       1.00000000
  5.25600000E+05  6       1.00000000
  5.25600000E+05  6       1.00000000
  5.25600000E+05  6       1.00000000
  5.25600000E+05  6       1.00000000
  5.25600000E+05  6       1.00000000
  5.25600000E+05  6       1.00000000
  5.25600000E+05  6       1.00000000
  5.25600000E+05  6       1.00000000
  5.25600000E+05  6       1.00000000
  5.25600000E+05  6       1.00000000
END perioddata

