# File generated by Flopy version 3.3.6 on 12/07/2022 at 20:41:37.
BEGIN options
  SORPTION  linear
END options

BEGIN griddata
  porosity
    CONSTANT       0.35000000
  bulk_density
    CONSTANT    1709.50000000
  distcoef
    CONSTANT  1.91663000E-04
END griddata

