# File generated by Flopy version 3.3.6 on 12/07/2022 at 20:41:37.
BEGIN griddata
  strt  LAYERED
    CONSTANT      10.00000000
    CONSTANT      10.00000000
    CONSTANT      10.00000000
    CONSTANT      10.00000000
    CONSTANT      10.00000000
    CONSTANT      10.00000000
    CONSTANT      10.00000000
    CONSTANT      10.00000000
    CONSTANT      10.00000000
    CONSTANT      10.00000000
    CONSTANT      10.00000000
    CONSTANT      10.00000000
    CONSTANT      10.00000000
    CONSTANT      10.00000000
    CONSTANT      10.00000000
    CONSTANT      10.00000000
    CONSTANT      10.00000000
    CONSTANT      10.00000000
    CONSTANT      10.00000000
    CONSTANT      10.00000000
    CONSTANT      10.00000000
    CONSTANT      10.00000000
    CONSTANT      10.00000000
    CONSTANT      10.00000000
    CONSTANT      10.00000000
    CONSTANT      10.00000000
    CONSTANT      10.00000000
    CONSTANT      10.00000000
    CONSTANT      10.00000000
    CONSTANT      10.00000000
    CONSTANT      10.00000000
    CONSTANT      10.00000000
    CONSTANT      10.00000000
    CONSTANT      10.00000000
    CONSTANT      10.00000000
    CONSTANT      10.00000000
    CONSTANT      10.00000000
    CONSTANT      10.00000000
    CONSTANT      10.00000000
    CONSTANT      10.00000000
    CONSTANT      10.00000000
    CONSTANT      10.00000000
    CONSTANT      10.00000000
    CONSTANT      10.00000000
    CONSTANT      10.00000000
    CONSTANT      10.00000000
    CONSTANT      10.00000000
    CONSTANT      10.00000000
    CONSTANT      10.00000000
    CONSTANT      10.00000000
    CONSTANT      10.00000000
    CONSTANT      10.00000000
    CONSTANT      10.00000000
    CONSTANT      10.00000000
    CONSTANT      10.00000000
    CONSTANT      10.00000000
    CONSTANT      10.00000000
    CONSTANT      10.00000000
    CONSTANT      10.00000000
    CONSTANT      10.00000000
    CONSTANT      10.00000000
    CONSTANT      10.00000000
    CONSTANT      10.00000000
    CONSTANT      10.00000000
    CONSTANT      10.00000000
    CONSTANT      10.00000000
    CONSTANT      10.00000000
    CONSTANT      10.00000000
    CONSTANT      10.00000000
    CONSTANT      10.00000000
    CONSTANT      10.00000000
    CONSTANT      10.00000000
    CONSTANT      10.00000000
    CONSTANT      10.00000000
    CONSTANT      10.00000000
    CONSTANT      10.00000000
    CONSTANT      10.00000000
    CONSTANT      10.00000000
    CONSTANT      10.00000000
    CONSTANT      10.00000000
    CONSTANT      10.00000000
    CONSTANT      10.00000000
    CONSTANT      10.00000000
    CONSTANT      10.00000000
    CONSTANT      10.00000000
    CONSTANT      10.00000000
    CONSTANT      10.00000000
    CONSTANT      10.00000000
    CONSTANT      10.00000000
    CONSTANT      10.00000000
    CONSTANT      10.00000000
    CONSTANT      10.00000000
    CONSTANT      10.00000000
    CONSTANT      10.00000000
    CONSTANT      10.00000000
    CONSTANT      10.00000000
    CONSTANT      10.00000000
    CONSTANT      10.00000000
    CONSTANT      10.00000000
    CONSTANT      10.00000000
    CONSTANT      10.00000000
    CONSTANT      10.00000000
    CONSTANT      10.00000000
    CONSTANT      10.00000000
    CONSTANT      10.00000000
    CONSTANT      10.00000000
    CONSTANT      10.00000000
    CONSTANT      10.00000000
    CONSTANT      10.00000000
    CONSTANT      10.00000000
    CONSTANT      10.00000000
    CONSTANT      10.00000000
    CONSTANT      10.00000000
    CONSTANT      10.00000000
    CONSTANT      10.00000000
    CONSTANT      10.00000000
    CONSTANT      10.00000000
    CONSTANT      10.00000000
    CONSTANT      10.00000000
    CONSTANT      10.00000000
END griddata

