# File generated by Flopy version 3.3.6 on 12/07/2022 at 20:41:37.
BEGIN options
  XT3D_OFF
END options

BEGIN griddata
  diffc
    CONSTANT  1.02882000E-06
  alh
    CONSTANT       0.00000000
  ath1
    CONSTANT       0.00000000
END griddata

