# File generated by Flopy version 3.3.6 on 12/07/2022 at 20:40:12.
BEGIN options
  SAVE_FLOWS
  NEWTON
END options

BEGIN packages
  DIS6  gwf-lgr-parent.dis  dis
  IC6  gwf-lgr-parent.ic  ic
  NPF6  gwf-lgr-parent.npf  npf
  OC6  gwf-lgr-parent.oc  oc
  CHD6  gwf-lgr-parent.chd1.chd  chd-1
  CHD6  gwf-lgr-parent.chd2.chd  chd-2
  SFR6  gwf-lgr-parent.sfr  sfr-parent
END packages

