# File generated by Flopy version 3.3.6 on 12/07/2022 at 20:40:08.
BEGIN options
  TIME_UNITS  days
END options

BEGIN dimensions
  NPER  3
END dimensions

BEGIN perioddata
     400.00000000  10       1.00000000
     200.00000000  4       1.00000000
     400.00000000  6       1.00000000
END perioddata

