# File generated by Flopy version 3.3.6 on 12/07/2022 at 20:40:08.
BEGIN options
  TS6  FILEIN  ex-gwf-fhb.chd.ts
END options

BEGIN dimensions
  MAXBOUND  3
END dimensions

BEGIN period  1
  1 1 10  CHDHEAD
  1 2 10  CHDHEAD
  1 3 10  CHDHEAD
END period  1

