# File generated by Flopy version 3.3.6 on 12/07/2022 at 20:40:08.
BEGIN options
  TS6  FILEIN  ex-gwf-fhb.wel.ts
END options

BEGIN dimensions
  MAXBOUND  1
END dimensions

BEGIN period  1
  1 2 1  FLOWRATE
END period  1

