# File generated by Flopy version 3.3.6 on 12/07/2022 at 20:40:33.
BEGIN options
  HEAD  FILEOUT  ex-gwf-nwt-p03.hds
END options

BEGIN period  1
  SAVE  HEAD  ALL
END period  1

