# File generated by Flopy version 3.3.6 on 12/07/2022 at 20:41:06.
BEGIN options
  LENGTH_UNITS  m
END options

BEGIN dimensions
  NLAY  1
  NROW  1
  NCOL  101
END dimensions

BEGIN griddata
  delr
    CONSTANT       0.16000000
  delc
    CONSTANT       1.00000000
  top
    CONSTANT       1.00000000
  botm
    CONSTANT       0.00000000
END griddata

