# File generated by Flopy version 3.3.6 on 12/07/2022 at 20:41:06.
BEGIN options
  TIME_UNITS  days
END options

BEGIN dimensions
  NPER  2
END dimensions

BEGIN perioddata
     160.00000000  16       1.00000000
     680.00000000  84       1.00000000
END perioddata

