# File generated by Flopy version 3.3.6 on 12/07/2022 at 20:40:32.
BEGIN options
END options

BEGIN dimensions
  MAXBOUND  4
END dimensions

BEGIN period  1
  1 1 1       0.05000000
  1 1 2       0.05000000
  1 2 1       0.05000000
  1 2 2       0.05000000
END period  1

