# File generated by Flopy version 3.3.6 on 12/07/2022 at 20:40:32.
BEGIN options
END options

BEGIN griddata
  icelltype  LAYERED
    CONSTANT  1
    CONSTANT  1
    CONSTANT  1
    CONSTANT  1
    CONSTANT  1
    CONSTANT  1
    CONSTANT  1
    CONSTANT  1
    CONSTANT  1
    CONSTANT  0
    CONSTANT  0
    CONSTANT  0
    CONSTANT  0
    CONSTANT  0
  k
    CONSTANT       5.00000000
  k33
    CONSTANT       0.25000000
END griddata

