# File generated by Flopy version 3.3.6 on 12/07/2022 at 20:40:32.
BEGIN options
  HEAD  FILEOUT  ex-gwf-nwt-p02.hds
END options

BEGIN period  1
  SAVE  HEAD  LAST
END period  1

